<additional>
    <polyline id="edge_1_14" color="red" shape="1522.9599999999996,402.83 1387.71,475.41999999999996" layer="2"/>
    <polyline id="edge_2_12" color="red" shape="278.45,1072.9400000000003 147.99,1143.4500000000003" layer="2"/>
    <polyline id="edge_3_15" color="red" shape="630.58,883.33 872.0599999999997,753.17" layer="2"/>
    <polyline id="edge_3_37" color="red" shape="630.58,883.33 671.5299999999999,959.1" layer="2"/>
    <polyline id="edge_4_76" color="red" shape="1112.5599999999997,623.38 1153.3899999999999,698.6900000000002" layer="2"/>
    <polyline id="edge_5_15" color="red" shape="916.57,729.62 872.0599999999997,753.17" layer="2"/>
    <polyline id="edge_5_104" color="red" shape="916.57,729.62 896.76,644.41" layer="2"/>
    <polyline id="edge_6_9" color="red" shape="327.49,320.86000000000007 569.25,191.59" layer="2"/>
    <polyline id="edge_6_11" color="red" shape="327.49,320.86000000000007 84.55999999999999,452.33" layer="2"/>
    <polyline id="edge_7_140" color="red" shape="189.37,1220.07 226.24,1288.49" layer="2"/>
    <polyline id="edge_9_6" color="red" shape="569.25,191.59 327.49,320.86000000000007" layer="2"/>
    <polyline id="edge_9_109" color="red" shape="569.25,191.59 812.73,60.269999999999996" layer="2"/>
    <polyline id="edge_9_152" color="red" shape="569.25,191.59 529.04,117.08" layer="2"/>
    <polyline id="edge_11_6" color="red" shape="84.55999999999999,452.33 327.49,320.86000000000007" layer="2"/>
    <polyline id="edge_12_2" color="red" shape="147.99,1143.4500000000003 278.45,1072.9400000000003" layer="2"/>
    <polyline id="edge_12_7" color="red" shape="147.99,1143.4500000000003 189.37,1220.07" layer="2"/>
    <polyline id="edge_13_155" color="red" shape="2235.9399999999996,1390.7599999999998 2196.8800000000006,1310.5" layer="2"/>
    <polyline id="edge_14_1" color="red" shape="1387.71,475.41999999999996 1522.9599999999996,402.83" layer="2"/>
    <polyline id="edge_14_160" color="red" shape="1387.71,475.41999999999996 1346.2700000000002,401.15000000000003" layer="2"/>
    <polyline id="edge_15_3" color="red" shape="872.0599999999997,753.17 630.58,883.33" layer="2"/>
    <polyline id="edge_15_5" color="red" shape="872.0599999999997,753.17 916.57,729.62" layer="2"/>
    <polyline id="edge_15_89" color="red" shape="872.0599999999997,753.17 830.86,679.08" layer="2"/>
    <polyline id="edge_18_104" color="red" shape="1073.06,549.1 896.76,644.41" layer="2"/>
    <polyline id="edge_19_120" color="red" shape="1866.24,1036.91 1903.51,1106.83" layer="2"/>
    <polyline id="edge_20_110" color="red" shape="1940.8200000000002,1175.97 1803.7800000000002,1249.41" layer="2"/>
    <polyline id="edge_20_111" color="red" shape="1940.8200000000002,1175.97 1979.2000000000005,1247.32" layer="2"/>
    <polyline id="edge_21_30" color="red" shape="311.01000000000005,870.79 274.7200000000001,801.3999999999999" layer="2"/>
    <polyline id="edge_24_23" color="red" shape="822.0200000000001,1238.06 859.84,1308.1900000000003" layer="2"/>
    <polyline id="edge_24_126" color="red" shape="822.0200000000001,1238.06 577.99,1372.77" layer="2"/>
    <polyline id="edge_25_127" color="red" shape="2171.32,150.80999999999997 1974.8300000000004,257.38000000000005" layer="2"/>
    <polyline id="edge_26_25" color="red" shape="2208.3800000000006,219.91 2171.32,150.80999999999997" layer="2"/>
    <polyline id="edge_27_55" color="red" shape="404.61000000000007,463.77999999999986 441.4899999999999,532.27" layer="2"/>
    <polyline id="edge_27_58" color="red" shape="404.61000000000007,463.77999999999986 645.65,334.50999999999993" layer="2"/>
    <polyline id="edge_28_108" color="red" shape="924.04,272.36999999999995 961.3999999999999,341.3" layer="2"/>
    <polyline id="edge_28_149" color="red" shape="924.04,272.36999999999995 828.54,325.05" layer="2"/>
    <polyline id="edge_30_56" color="red" shape="274.7200000000001,801.3999999999999 237.13999999999993,731.92" layer="2"/>
    <polyline id="edge_31_106" color="red" shape="70.87,1000.42 206.28000000000006,926.41" layer="2"/>
    <polyline id="edge_32_29" color="red" shape="178.17,34.92 212.81999999999996,108.05" layer="2"/>
    <polyline id="edge_33_21" color="red" shape="352.8200000000001,947.4699999999999 311.01000000000005,870.79" layer="2"/>
    <polyline id="edge_33_142" color="red" shape="352.8200000000001,947.4699999999999 240.88000000000005,1005.1800000000001" layer="2"/>
    <polyline id="edge_35_36" color="red" shape="1851.7099999999994,684.1099999999999 1889.6199999999992,754.39" layer="2"/>
    <polyline id="edge_35_84" color="red" shape="1851.7099999999994,684.1099999999999 1813.8600000000004,613.9899999999999" layer="2"/>
    <polyline id="edge_36_35" color="red" shape="1889.6199999999992,754.39 1851.7099999999994,684.1099999999999" layer="2"/>
    <polyline id="edge_36_85" color="red" shape="1889.6199999999992,754.39 2028.01,679.42" layer="2"/>
    <polyline id="edge_36_86" color="red" shape="1889.6199999999992,754.39 1927.1100000000004,823.89" layer="2"/>
    <polyline id="edge_37_67" color="red" shape="671.5299999999999,959.1 708.99,1028.43" layer="2"/>
    <polyline id="edge_37_93" color="red" shape="671.5299999999999,959.1 430.08,1088.67" layer="2"/>
    <polyline id="edge_38_40" color="red" shape="758.4800000000001,542.18 719.1999999999999,470.23" layer="2"/>
    <polyline id="edge_38_95" color="red" shape="758.4800000000001,542.18 516.0500000000001,670.68" layer="2"/>
    <polyline id="edge_39_108" color="red" shape="843.38,402.86 961.3999999999999,341.3" layer="2"/>
    <polyline id="edge_39_149" color="red" shape="843.38,402.86 828.54,325.05" layer="2"/>
    <polyline id="edge_40_39" color="red" shape="719.1999999999999,470.23 843.38,402.86" layer="2"/>
    <polyline id="edge_40_88" color="red" shape="719.1999999999999,470.23 682.42,402.26" layer="2"/>
    <polyline id="edge_41_40" color="red" shape="478.34999999999997,601.08 719.1999999999999,470.23" layer="2"/>
    <polyline id="edge_42_146" color="red" shape="1266.6499999999999,908.08 1304.3500000000001,978.0200000000002" layer="2"/>
    <polyline id="edge_42_148" color="red" shape="1266.6499999999999,908.08 1541.13,761.06" layer="2"/>
    <polyline id="edge_43_147" color="red" shape="505.44,1228.4799999999998 467.67999999999995,1158.43" layer="2"/>
    <polyline id="edge_44_62" color="red" shape="1140.09,1247.7899999999997 1070.91,1284.82" layer="2"/>
    <polyline id="edge_44_92" color="red" shape="1140.09,1247.7899999999997 1101.41,1178.25" layer="2"/>
    <polyline id="edge_45_46" color="red" shape="805.34,158.03 608.7799999999999,264.16" layer="2"/>
    <polyline id="edge_46_9" color="red" shape="608.7799999999999,264.16 569.25,191.59" layer="2"/>
    <polyline id="edge_47_124" color="red" shape="1465.07,620.9 1602.15,546.58" layer="2"/>
    <polyline id="edge_47_143" color="red" shape="1465.07,620.9 1427.9500000000003,551.93" layer="2"/>
    <polyline id="edge_48_98" color="red" shape="1951.7099999999996,538.96 1913.8699999999994,468.94" layer="2"/>
    <polyline id="edge_48_115" color="red" shape="1951.7099999999996,538.96 2087.59,466.47999999999985" layer="2"/>
    <polyline id="edge_49_117" color="red" shape="70.81,647.68 161.86000000000004,595.13" layer="2"/>
    <polyline id="edge_50_51" color="red" shape="1714.9599999999996,757.48 1579.6299999999999,830.58" layer="2"/>
    <polyline id="edge_50_113" color="red" shape="1714.9599999999996,757.48 1752.33,826.3900000000001" layer="2"/>
    <polyline id="edge_51_146" color="red" shape="1579.6299999999999,830.58 1304.3500000000001,978.0200000000002" layer="2"/>
    <polyline id="edge_51_148" color="red" shape="1579.6299999999999,830.58 1541.13,761.06" layer="2"/>
    <polyline id="edge_52_144" color="red" shape="1191.2,768.63 1228.78,838.91" layer="2"/>
    <polyline id="edge_53_54" color="red" shape="989.0599999999997,968.5 746.77,1098.5" layer="2"/>
    <polyline id="edge_53_68" color="red" shape="989.0599999999997,968.5 949.5,899.1000000000001" layer="2"/>
    <polyline id="edge_54_94" color="red" shape="746.77,1098.5 784.5600000000001,1168.59" layer="2"/>
    <polyline id="edge_55_41" color="red" shape="441.4899999999999,532.27 478.34999999999997,601.08" layer="2"/>
    <polyline id="edge_57_45" color="red" shape="816.8000000000001,242.71 805.34,158.03" layer="2"/>
    <polyline id="edge_57_164" color="red" shape="816.8000000000001,242.71 888.96,204.02" layer="2"/>
    <polyline id="edge_58_46" color="red" shape="645.65,334.50999999999993 608.7799999999999,264.16" layer="2"/>
    <polyline id="edge_58_57" color="red" shape="645.65,334.50999999999993 816.8000000000001,242.71" layer="2"/>
    <polyline id="edge_59_134" color="red" shape="2200.5400000000004,675.7600000000001 2064.93,748.6000000000001" layer="2"/>
    <polyline id="edge_60_43" color="red" shape="537.31,1302.13 505.44,1228.4799999999998" layer="2"/>
    <polyline id="edge_60_94" color="red" shape="537.31,1302.13 784.5600000000001,1168.59" layer="2"/>
    <polyline id="edge_61_44" color="red" shape="1177.75,1318.34 1140.09,1247.7899999999997" layer="2"/>
    <polyline id="edge_61_122" color="red" shape="1177.75,1318.34 1418.3899999999999,1189.66" layer="2"/>
    <polyline id="edge_64_97" color="red" shape="1408.12,189.93000000000004 1445.7199999999998,260.11999999999995" layer="2"/>
    <polyline id="edge_65_105" color="red" shape="1272.2700000000002,263.2200000000001 999.7200000000001,411.32" layer="2"/>
    <polyline id="edge_65_125" color="red" shape="1272.2700000000002,263.2200000000001 1235.01,193.78" layer="2"/>
    <polyline id="edge_66_120" color="red" shape="1766.9799999999998,1181.36 1903.51,1106.83" layer="2"/>
    <polyline id="edge_66_135" color="red" shape="1766.9799999999998,1181.36 1729.6399999999999,1111.6900000000003" layer="2"/>
    <polyline id="edge_67_68" color="red" shape="708.99,1028.43 949.5,899.1000000000001" layer="2"/>
    <polyline id="edge_68_52" color="red" shape="949.5,899.1000000000001 1191.2,768.63" layer="2"/>
    <polyline id="edge_69_20" color="red" shape="2077.830000000001,1103.09 1940.8200000000002,1175.97" layer="2"/>
    <polyline id="edge_69_70" color="red" shape="2077.830000000001,1103.09 2040.6399999999996,1034.49" layer="2"/>
    <polyline id="edge_69_157" color="red" shape="2077.830000000001,1103.09 2115.6500000000005,1173.4799999999998" layer="2"/>
    <polyline id="edge_70_69" color="red" shape="2040.6399999999996,1034.49 2077.830000000001,1103.09" layer="2"/>
    <polyline id="edge_70_71" color="red" shape="2040.6399999999996,1034.49 2002.7299999999998,963.92" layer="2"/>
    <polyline id="edge_70_136" color="red" shape="2040.6399999999996,1034.49 2182.7099999999996,957.34" layer="2"/>
    <polyline id="edge_71_70" color="red" shape="2002.7299999999998,963.92 2040.6399999999996,1034.49" layer="2"/>
    <polyline id="edge_71_87" color="red" shape="2002.7299999999998,963.92 1964.5099999999995,893.1200000000002" layer="2"/>
    <polyline id="edge_72_162" color="red" shape="1455.1900000000003,1258.28 1493.17,1328.8500000000001" layer="2"/>
    <polyline id="edge_73_31" color="red" shape="28.38,935.92 70.87,1000.42" layer="2"/>
    <polyline id="edge_74_161" color="red" shape="553.18,739.79 794.42,610.09" layer="2"/>
    <polyline id="edge_76_52" color="red" shape="1153.3899999999999,698.6900000000002 1191.2,768.63" layer="2"/>
    <polyline id="edge_77_1" color="red" shape="1482.3500000000001,327.74 1522.9599999999996,402.83" layer="2"/>
    <polyline id="edge_82_33" color="red" shape="388.10999999999996,1013.67 352.8200000000001,947.4699999999999" layer="2"/>
    <polyline id="edge_83_130" color="red" shape="1691.2099999999996,1041.08 1653.5300000000002,970.2399999999999" layer="2"/>
    <polyline id="edge_83_131" color="red" shape="1691.2099999999996,1041.08 1828.28,966.5699999999999" layer="2"/>
    <polyline id="edge_84_35" color="red" shape="1813.8600000000004,613.9899999999999 1851.7099999999994,684.1099999999999" layer="2"/>
    <polyline id="edge_85_99" color="red" shape="2028.01,679.42 2162.5600000000004,605.8000000000001" layer="2"/>
    <polyline id="edge_85_133" color="red" shape="2028.01,679.42 1989.3699999999994,608.11" layer="2"/>
    <polyline id="edge_86_36" color="red" shape="1927.1100000000004,823.89 1889.6199999999992,754.39" layer="2"/>
    <polyline id="edge_86_87" color="red" shape="1927.1100000000004,823.89 1964.5099999999995,893.1200000000002" layer="2"/>
    <polyline id="edge_86_132" color="red" shape="1927.1100000000004,823.89 1790.6499999999999,897.04" layer="2"/>
    <polyline id="edge_87_71" color="red" shape="1964.5099999999995,893.1200000000002 2002.7299999999998,963.92" layer="2"/>
    <polyline id="edge_87_86" color="red" shape="1964.5099999999995,893.1200000000002 1927.1100000000004,823.89" layer="2"/>
    <polyline id="edge_87_138" color="red" shape="1964.5099999999995,893.1200000000002 2102.78,818.77" layer="2"/>
    <polyline id="edge_88_55" color="red" shape="682.42,402.26 441.4899999999999,532.27" layer="2"/>
    <polyline id="edge_88_58" color="red" shape="682.42,402.26 645.65,334.50999999999993" layer="2"/>
    <polyline id="edge_90_150" color="red" shape="1064.6000000000001,1109.17 1026.57,1039.25" layer="2"/>
    <polyline id="edge_91_102" color="red" shape="1342.07,1048.26 1616.49,900.2299999999998" layer="2"/>
    <polyline id="edge_91_145" color="red" shape="1342.07,1048.26 1379.9400000000003,1118.58" layer="2"/>
    <polyline id="edge_92_90" color="red" shape="1101.41,1178.25 1064.6000000000001,1109.17" layer="2"/>
    <polyline id="edge_92_91" color="red" shape="1101.41,1178.25 1342.07,1048.26" layer="2"/>
    <polyline id="edge_93_7" color="red" shape="430.08,1088.67 189.37,1220.07" layer="2"/>
    <polyline id="edge_94_150" color="red" shape="784.5600000000001,1168.59 1026.57,1039.25" layer="2"/>
    <polyline id="edge_95_74" color="red" shape="516.0500000000001,670.68 553.18,739.79" layer="2"/>
    <polyline id="edge_96_64" color="red" shape="1371.2299999999998,120.25 1408.12,189.93000000000004" layer="2"/>
    <polyline id="edge_97_77" color="red" shape="1445.7199999999998,260.11999999999995 1482.3500000000001,327.74" layer="2"/>
    <polyline id="edge_98_154" color="red" shape="1913.8699999999994,468.94 1876.36,399.01" layer="2"/>
    <polyline id="edge_99_59" color="red" shape="2162.5600000000004,605.8000000000001 2200.5400000000004,675.7600000000001" layer="2"/>
    <polyline id="edge_100_65" color="red" shape="1309.64,332.88000000000005 1272.2700000000002,263.2200000000001" layer="2"/>
    <polyline id="edge_100_97" color="red" shape="1309.64,332.88000000000005 1445.7199999999998,260.11999999999995" layer="2"/>
    <polyline id="edge_102_51" color="red" shape="1616.49,900.2299999999998 1579.6299999999999,830.58" layer="2"/>
    <polyline id="edge_102_113" color="red" shape="1616.49,900.2299999999998 1752.33,826.3900000000001" layer="2"/>
    <polyline id="edge_103_12" color="red" shape="109.30999999999996,1071.7099999999998 147.99,1143.4500000000003" layer="2"/>
    <polyline id="edge_104_89" color="red" shape="896.76,644.41 830.86,679.08" layer="2"/>
    <polyline id="edge_104_163" color="red" shape="896.76,644.41 878.57,564.42" layer="2"/>
    <polyline id="edge_105_107" color="red" shape="999.7200000000001,411.32 1036.3999999999999,480.0100000000001" layer="2"/>
    <polyline id="edge_106_21" color="red" shape="206.28000000000006,926.41 311.01000000000005,870.79" layer="2"/>
    <polyline id="edge_106_142" color="red" shape="206.28000000000006,926.41 240.88000000000005,1005.1800000000001" layer="2"/>
    <polyline id="edge_107_18" color="red" shape="1036.3999999999999,480.0100000000001 1073.06,549.1" layer="2"/>
    <polyline id="edge_107_100" color="red" shape="1036.3999999999999,480.0100000000001 1309.64,332.88000000000005" layer="2"/>
    <polyline id="edge_108_105" color="red" shape="961.3999999999999,341.3 999.7200000000001,411.32" layer="2"/>
    <polyline id="edge_108_125" color="red" shape="961.3999999999999,341.3 1235.01,193.78" layer="2"/>
    <polyline id="edge_109_9" color="red" shape="812.73,60.269999999999996 569.25,191.59" layer="2"/>
    <polyline id="edge_109_153" color="red" shape="812.73,60.269999999999996 850.63,133.56999999999996" layer="2"/>
    <polyline id="edge_110_66" color="red" shape="1803.7800000000002,1249.41 1766.9799999999998,1181.36" layer="2"/>
    <polyline id="edge_111_157" color="red" shape="1979.2000000000005,1247.32 2115.6500000000005,1173.4799999999998" layer="2"/>
    <polyline id="edge_112_26" color="red" shape="2011.7200000000003,326.0 2208.3800000000006,219.91" layer="2"/>
    <polyline id="edge_112_119" color="red" shape="2011.7200000000003,326.0 2049.7200000000003,396.3400000000001" layer="2"/>
    <polyline id="edge_113_36" color="red" shape="1752.33,826.3900000000001 1889.6199999999992,754.39" layer="2"/>
    <polyline id="edge_113_132" color="red" shape="1752.33,826.3900000000001 1790.6499999999999,897.04" layer="2"/>
    <polyline id="edge_114_121" color="red" shape="1640.3500000000001,617.64 1678.33,687.6999999999999" layer="2"/>
    <polyline id="edge_114_129" color="red" shape="1640.3500000000001,617.64 1502.5300000000002,691.3500000000001" layer="2"/>
    <polyline id="edge_115_128" color="red" shape="2087.59,466.47999999999985 2124.86,536.1900000000002" layer="2"/>
    <polyline id="edge_119_98" color="red" shape="2049.7200000000003,396.3400000000001 1913.8699999999994,468.94" layer="2"/>
    <polyline id="edge_119_115" color="red" shape="2049.7200000000003,396.3400000000001 2087.59,466.47999999999985" layer="2"/>
    <polyline id="edge_120_70" color="red" shape="1903.51,1106.83 2040.6399999999996,1034.49" layer="2"/>
    <polyline id="edge_122_72" color="red" shape="1418.3899999999999,1189.66 1455.1900000000003,1258.28" layer="2"/>
    <polyline id="edge_122_83" color="red" shape="1418.3899999999999,1189.66 1691.2099999999996,1041.08" layer="2"/>
    <polyline id="edge_123_155" color="red" shape="2052.27,1390.4 2196.8800000000006,1310.5" layer="2"/>
    <polyline id="edge_124_159" color="red" shape="1602.15,546.58 1678.38,505.25" layer="2"/>
    <polyline id="edge_125_96" color="red" shape="1235.01,193.78 1371.2299999999998,120.25" layer="2"/>
    <polyline id="edge_125_116" color="red" shape="1235.01,193.78 1197.9599999999998,124.72000000000001" layer="2"/>
    <polyline id="edge_126_60" color="red" shape="577.99,1372.77 537.31,1302.13" layer="2"/>
    <polyline id="edge_127_112" color="red" shape="1974.8300000000004,257.38000000000005 2011.7200000000003,326.0" layer="2"/>
    <polyline id="edge_128_99" color="red" shape="2124.86,536.1900000000002 2162.5600000000004,605.8000000000001" layer="2"/>
    <polyline id="edge_128_133" color="red" shape="2124.86,536.1900000000002 1989.3699999999994,608.11" layer="2"/>
    <polyline id="edge_129_47" color="red" shape="1502.5300000000002,691.3500000000001 1465.07,620.9" layer="2"/>
    <polyline id="edge_130_102" color="red" shape="1653.5300000000002,970.2399999999999 1616.49,900.2299999999998" layer="2"/>
    <polyline id="edge_130_145" color="red" shape="1653.5300000000002,970.2399999999999 1379.9400000000003,1118.58" layer="2"/>
    <polyline id="edge_131_87" color="red" shape="1828.28,966.5699999999999 1964.5099999999995,893.1200000000002" layer="2"/>
    <polyline id="edge_132_131" color="red" shape="1790.6499999999999,897.04 1828.28,966.5699999999999" layer="2"/>
    <polyline id="edge_133_35" color="red" shape="1989.3699999999994,608.11 1851.7099999999994,684.1099999999999" layer="2"/>
    <polyline id="edge_133_48" color="red" shape="1989.3699999999994,608.11 1951.7099999999996,538.96" layer="2"/>
    <polyline id="edge_134_85" color="red" shape="2064.93,748.6000000000001 2028.01,679.42" layer="2"/>
    <polyline id="edge_134_86" color="red" shape="2064.93,748.6000000000001 1927.1100000000004,823.89" layer="2"/>
    <polyline id="edge_135_83" color="red" shape="1729.6399999999999,1111.6900000000003 1691.2099999999996,1041.08" layer="2"/>
    <polyline id="edge_136_137" color="red" shape="2182.7099999999996,957.34 2140.35,888.7700000000002" layer="2"/>
    <polyline id="edge_137_138" color="red" shape="2140.35,888.7700000000002 2102.78,818.77" layer="2"/>
    <polyline id="edge_138_134" color="red" shape="2102.78,818.77 2064.93,748.6000000000001" layer="2"/>
    <polyline id="edge_139_136" color="red" shape="2220.75,1026.33 2182.7099999999996,957.34" layer="2"/>
    <polyline id="edge_140_147" color="red" shape="226.24,1288.49 467.67999999999995,1158.43" layer="2"/>
    <polyline id="edge_142_2" color="red" shape="240.88000000000005,1005.1800000000001 278.45,1072.9400000000003" layer="2"/>
    <polyline id="edge_143_14" color="red" shape="1427.9500000000003,551.93 1387.71,475.41999999999996" layer="2"/>
    <polyline id="edge_143_76" color="red" shape="1427.9500000000003,551.93 1153.3899999999999,698.6900000000002" layer="2"/>
    <polyline id="edge_144_42" color="red" shape="1228.78,838.91 1266.6499999999999,908.08" layer="2"/>
    <polyline id="edge_144_53" color="red" shape="1228.78,838.91 989.0599999999997,968.5" layer="2"/>
    <polyline id="edge_145_122" color="red" shape="1379.9400000000003,1118.58 1418.3899999999999,1189.66" layer="2"/>
    <polyline id="edge_146_90" color="red" shape="1304.3500000000001,978.0200000000002 1064.6000000000001,1109.17" layer="2"/>
    <polyline id="edge_146_91" color="red" shape="1304.3500000000001,978.0200000000002 1342.07,1048.26" layer="2"/>
    <polyline id="edge_147_67" color="red" shape="467.67999999999995,1158.43 708.99,1028.43" layer="2"/>
    <polyline id="edge_147_93" color="red" shape="467.67999999999995,1158.43 430.08,1088.67" layer="2"/>
    <polyline id="edge_148_121" color="red" shape="1541.13,761.06 1678.33,687.6999999999999" layer="2"/>
    <polyline id="edge_148_129" color="red" shape="1541.13,761.06 1502.5300000000002,691.3500000000001" layer="2"/>
    <polyline id="edge_149_57" color="red" shape="828.54,325.05 816.8000000000001,242.71" layer="2"/>
    <polyline id="edge_149_88" color="red" shape="828.54,325.05 682.42,402.26" layer="2"/>
    <polyline id="edge_150_53" color="red" shape="1026.57,1039.25 989.0599999999997,968.5" layer="2"/>
    <polyline id="edge_153_45" color="red" shape="850.63,133.56999999999996 805.34,158.03" layer="2"/>
    <polyline id="edge_153_164" color="red" shape="850.63,133.56999999999996 888.96,204.02" layer="2"/>
    <polyline id="edge_154_112" color="red" shape="1876.36,399.01 2011.7200000000003,326.0" layer="2"/>
    <polyline id="edge_155_13" color="red" shape="2196.8800000000006,1310.5 2235.9399999999996,1390.7599999999998" layer="2"/>
    <polyline id="edge_155_156" color="red" shape="2196.8800000000006,1310.5 2159.77,1241.09" layer="2"/>
    <polyline id="edge_156_155" color="red" shape="2159.77,1241.09 2196.8800000000006,1310.5" layer="2"/>
    <polyline id="edge_156_157" color="red" shape="2159.77,1241.09 2115.6500000000005,1173.4799999999998" layer="2"/>
    <polyline id="edge_157_69" color="red" shape="2115.6500000000005,1173.4799999999998 2077.830000000001,1103.09" layer="2"/>
    <polyline id="edge_157_156" color="red" shape="2115.6500000000005,1173.4799999999998 2159.77,1241.09" layer="2"/>
    <polyline id="edge_158_124" color="red" shape="1565.22,478.12 1602.15,546.58" layer="2"/>
    <polyline id="edge_158_143" color="red" shape="1565.22,478.12 1427.9500000000003,551.93" layer="2"/>
    <polyline id="edge_160_77" color="red" shape="1346.2700000000002,401.15000000000003 1482.3500000000001,327.74" layer="2"/>
    <polyline id="edge_160_100" color="red" shape="1346.2700000000002,401.15000000000003 1309.64,332.88000000000005" layer="2"/>
    <polyline id="edge_161_38" color="red" shape="794.42,610.09 758.4800000000001,542.18" layer="2"/>
    <polyline id="edge_161_163" color="red" shape="794.42,610.09 878.57,564.42" layer="2"/>
    <polyline id="edge_163_107" color="red" shape="878.57,564.42 1036.3999999999999,480.0100000000001" layer="2"/>
    <polyline id="edge_164_28" color="red" shape="888.96,204.02 924.04,272.36999999999995" layer="2"/>
    <polyline id="edge_166_110" color="red" shape="1836.92,1323.71 1803.7800000000002,1249.41" layer="2"/>
    <polyline id="edge_166_111" color="red" shape="1836.92,1323.71 1979.2000000000005,1247.32" layer="2"/>
</additional>
