<?xml version="1.0" encoding="UTF-8"?>

<!-- generated on 2025-04-12 16:29:14 by Eclipse SUMO netconvert Version v1_21_0+1945-f15ee0a3369
<netconvertConfiguration xmlns:xsi="http://www.w3.org/2001/XMLSchema-instance" xsi:noNamespaceSchemaLocation="http://sumo.dlr.de/xsd/netconvertConfiguration.xsd">

    <input>
        <type-files value="${SUMO_HOME}/data/typemap/osmNetconvert.typ.xml"/>
        <osm-files value="osm_bbox.osm.xml.gz"/>
    </input>

    <output>
        <output-file value="osm.net.xml"/>
        <output.street-names value="true"/>
        <output.original-names value="true"/>
    </output>

    <projection>
        <proj.utm value="true"/>
    </projection>

    <processing>
        <geometry.remove value="true"/>
        <roundabouts.guess value="true"/>
    </processing>

    <tls_building>
        <tls.discard-simple value="true"/>
        <tls.guess value="true"/>
        <tls.guess.threshold value="4"/>
        <tls.join value="true"/>
        <tls.guess-signals value="true"/>
        <tls.default-type value="actuated"/>
    </tls_building>

    <ramp_guessing>
        <ramps.guess value="true"/>
    </ramp_guessing>

    <edge_removal>
        <keep-edges.by-vclass value="passenger"/>
    </edge_removal>

    <junctions>
        <junctions.join value="true"/>
        <junctions.corner-detail value="5"/>
    </junctions>

</netconvertConfiguration>
-->

<net version="1.20" junctionCornerDetail="5" limitTurnSpeed="5.50" xmlns:xsi="http://www.w3.org/2001/XMLSchema-instance" xsi:noNamespaceSchemaLocation="http://sumo.dlr.de/xsd/net_file.xsd">

    <location netOffset="-584641.13,-4511415.72" convBoundary="0.00,0.00,2253.91,1402.30" origBoundary="-73.997274,40.749300,-73.970533,40.761743" projParameter="+proj=utm +zone=18 +ellps=WGS84 +datum=WGS84 +units=m +no_defs"/>

    <type id="highway.motorway" priority="14" numLanes="2" speed="39.44" allow="private emergency authority army vip passenger hov taxi bus coach delivery truck trailer motorcycle evehicle custom1 custom2" oneway="1"/>
    <type id="highway.motorway_link" priority="9" numLanes="1" speed="22.22" allow="private emergency authority army vip passenger hov taxi bus coach delivery truck trailer motorcycle evehicle custom1 custom2" oneway="1"/>
    <type id="highway.primary" priority="12" numLanes="2" speed="27.78" disallow="tram rail_urban rail rail_electric rail_fast ship container cable_car subway aircraft wheelchair scooter drone" oneway="0"/>
    <type id="highway.residential" priority="3" numLanes="1" speed="13.89" disallow="tram rail_urban rail rail_electric rail_fast ship container cable_car subway aircraft wheelchair scooter drone" oneway="0"/>
    <type id="highway.secondary" priority="11" numLanes="1" speed="27.78" disallow="tram rail_urban rail rail_electric rail_fast ship container cable_car subway aircraft wheelchair scooter drone" oneway="0"/>
    <type id="highway.tertiary" priority="10" numLanes="1" speed="22.22" disallow="tram rail_urban rail rail_electric rail_fast ship container cable_car subway aircraft wheelchair scooter drone" oneway="0"/>
    <type id="highway.unclassified" priority="4" numLanes="1" speed="13.89" disallow="tram rail_urban rail rail_electric rail_fast ship container cable_car subway aircraft wheelchair scooter drone" oneway="0"/>

    <edge id=":100521835_0" function="internal">
        <lane id=":100521835_0_0" index="0" disallow="tram rail_urban rail rail_electric rail_fast ship container cable_car subway aircraft wheelchair scooter drone" speed="19.48" length="8.08" shape="1639.03,367.39 1640.94,365.99 1642.04,364.73 1643.16,363.49 1645.12,362.18"/>
    </edge>
    <edge id=":100522479_0" function="internal">
        <lane id=":100522479_0_0" index="0" disallow="tram rail_urban rail rail_electric rail_fast ship container cable_car subway aircraft wheelchair scooter drone" speed="11.18" length="8.58" shape="1587.32,197.53 1586.07,195.32 1585.04,193.90 1583.74,192.72 1581.69,191.23"/>
    </edge>
    <edge id=":100522479_1" function="internal">
        <lane id=":100522479_1_0" index="0" disallow="tram rail_urban rail rail_electric rail_fast ship container cable_car subway aircraft wheelchair scooter drone" speed="3.65" length="1.44" shape="1587.32,197.53 1587.44,196.09"/>
    </edge>
    <edge id=":100522479_4" function="internal">
        <lane id=":100522479_4_0" index="0" disallow="tram rail_urban rail rail_electric rail_fast ship container cable_car subway aircraft wheelchair scooter drone" speed="3.65" length="3.23" shape="1587.44,196.09 1587.96,195.36 1588.85,195.32 1590.13,195.99"/>
    </edge>
    <edge id=":100522479_2" function="internal">
        <lane id=":100522479_2_0" index="0" disallow="tram rail_urban rail rail_electric rail_fast ship container cable_car subway aircraft wheelchair scooter drone" speed="11.18" length="12.41" shape="1586.71,184.26 1587.94,187.55 1589.33,189.56 1590.97,191.47 1592.93,194.46"/>
        <lane id=":100522479_2_1" index="1" disallow="tram rail_urban rail rail_electric rail_fast ship container cable_car subway aircraft wheelchair scooter drone" speed="11.18" length="12.41" shape="1583.63,185.12 1584.91,188.62 1586.36,190.77 1588.06,192.81 1590.13,195.99"/>
    </edge>
    <edge id=":10089242331_0" function="internal">
        <lane id=":10089242331_0_0" index="0" disallow="pedestrian tram rail_urban rail rail_electric rail_fast ship container cable_car subway aircraft wheelchair scooter drone" speed="3.65" length="4.67" shape="8.05,494.89 6.62,494.75 5.89,494.23 5.86,493.34 6.55,492.06"/>
    </edge>
    <edge id=":10125227999_0" function="internal">
        <lane id=":10125227999_0_0" index="0" disallow="tram rail_urban rail rail_electric rail_fast ship container cable_car subway aircraft wheelchair scooter drone" speed="3.65" length="4.67" shape="2248.27,1377.45 2249.70,1377.59 2250.43,1378.10 2250.46,1378.99 2249.78,1380.27"/>
    </edge>
    <edge id=":10125247902_0" function="internal">
        <lane id=":10125247902_0_0" index="0" disallow="tram rail_urban rail rail_electric rail_fast ship container cable_car subway aircraft wheelchair scooter drone" speed="11.18" length="8.21" shape="1606.78,456.07 1604.78,457.43 1603.63,458.68 1602.48,459.92 1600.48,461.26"/>
        <lane id=":10125247902_0_1" index="1" disallow="tram rail_urban rail rail_electric rail_fast ship container cable_car subway aircraft wheelchair scooter drone" speed="11.18" length="8.21" shape="1606.78,456.07 1604.55,456.99 1602.88,457.26 1601.21,457.53 1598.97,458.44"/>
    </edge>
    <edge id=":10125260549_0" function="internal">
        <lane id=":10125260549_0_0" index="0" disallow="tram rail_urban rail rail_electric rail_fast ship container cable_car subway aircraft wheelchair scooter drone" speed="11.18" length="6.76" shape="1862.66,39.32 1863.84,40.91 1864.96,41.77 1866.07,42.63 1867.21,44.23"/>
        <lane id=":10125260549_0_1" index="1" disallow="tram rail_urban rail rail_electric rail_fast ship container cable_car subway aircraft wheelchair scooter drone" speed="11.18" length="6.76" shape="1862.66,39.32 1863.40,41.15 1863.56,42.55 1863.71,43.94 1864.42,45.78"/>
        <lane id=":10125260549_0_2" index="2" disallow="tram rail_urban rail rail_electric rail_fast ship container cable_car subway aircraft wheelchair scooter drone" speed="11.18" length="6.76" shape="1859.87,40.88 1860.60,42.71 1860.76,44.10 1860.91,45.50 1861.62,47.34"/>
        <lane id=":10125260549_0_3" index="3" disallow="tram rail_urban rail rail_electric rail_fast ship container cable_car subway aircraft wheelchair scooter drone" speed="11.18" length="6.76" shape="1857.07,42.43 1857.81,44.26 1857.96,45.66 1858.11,47.05 1858.83,48.90"/>
        <lane id=":10125260549_0_4" index="4" disallow="tram rail_urban rail rail_electric rail_fast ship container cable_car subway aircraft wheelchair scooter drone" speed="11.18" length="6.76" shape="1854.27,43.98 1855.01,45.82 1855.17,47.21 1855.32,48.61 1856.03,50.46"/>
        <lane id=":10125260549_0_5" index="5" disallow="tram rail_urban rail rail_electric rail_fast ship container cable_car subway aircraft wheelchair scooter drone" speed="11.18" length="6.76" shape="1851.47,45.54 1852.21,47.37 1852.37,48.77 1852.52,50.17 1853.23,52.01"/>
    </edge>
    <edge id=":10279559005_0" function="internal">
        <lane id=":10279559005_0_0" index="0" disallow="tram rail_urban rail rail_electric rail_fast ship container cable_car subway aircraft wheelchair scooter drone" speed="11.18" length="8.21" shape="493.36,622.07 494.72,624.06 495.97,625.21 497.21,626.35 498.58,628.34"/>
        <lane id=":10279559005_0_1" index="1" disallow="tram rail_urban rail rail_electric rail_fast ship container cable_car subway aircraft wheelchair scooter drone" speed="11.18" length="8.21" shape="490.55,623.59 491.91,625.58 493.15,626.73 494.40,627.88 495.76,629.87"/>
        <lane id=":10279559005_0_2" index="2" disallow="tram rail_urban rail rail_electric rail_fast ship container cable_car subway aircraft wheelchair scooter drone" speed="11.18" length="8.21" shape="487.73,625.12 489.09,627.11 490.34,628.25 491.59,629.40 492.95,631.39"/>
        <lane id=":10279559005_0_3" index="3" disallow="tram rail_urban rail rail_electric rail_fast ship container cable_car subway aircraft wheelchair scooter drone" speed="11.18" length="8.21" shape="487.73,625.12 488.65,627.34 488.93,629.02 489.21,630.69 490.13,632.91"/>
    </edge>
    <edge id=":10598594003_0" function="internal">
        <lane id=":10598594003_0_0" index="0" disallow="tram rail_urban rail rail_electric rail_fast ship container cable_car subway aircraft wheelchair scooter drone" speed="11.18" length="8.54" shape="965.33,708.67 963.41,710.28 962.58,711.98 961.75,713.68 959.83,715.30"/>
        <lane id=":10598594003_0_1" index="1" disallow="tram rail_urban rail rail_electric rail_fast ship container cable_car subway aircraft wheelchair scooter drone" speed="11.18" length="8.54" shape="963.81,705.86 961.88,707.47 961.06,709.17 960.23,710.87 958.30,712.48"/>
        <lane id=":10598594003_0_2" index="2" disallow="tram rail_urban rail rail_electric rail_fast ship container cable_car subway aircraft wheelchair scooter drone" speed="11.18" length="8.54" shape="963.81,705.86 956.78,709.67"/>
    </edge>
    <edge id=":10598594003_3" function="internal">
        <lane id=":10598594003_3_0" index="0" disallow="tram rail_urban rail rail_electric rail_fast ship container cable_car subway aircraft wheelchair scooter drone" speed="11.18" length="8.00" shape="953.73,704.04 960.76,700.23"/>
        <lane id=":10598594003_3_1" index="1" disallow="tram rail_urban rail rail_electric rail_fast ship container cable_car subway aircraft wheelchair scooter drone" speed="11.18" length="8.00" shape="955.25,706.86 962.28,703.04"/>
    </edge>
    <edge id=":10703807884_0" function="internal">
        <lane id=":10703807884_0_0" index="0" disallow="tram rail_urban rail rail_electric rail_fast ship container cable_car subway aircraft wheelchair scooter drone" speed="12.53" length="8.21" shape="1447.95,168.54 1445.96,169.90 1444.81,171.15 1443.66,172.39 1441.66,173.75"/>
        <lane id=":10703807884_0_1" index="1" disallow="tram rail_urban rail rail_electric rail_fast ship container cable_car subway aircraft wheelchair scooter drone" speed="12.53" length="8.21" shape="1447.95,168.54 1445.72,169.46 1444.05,169.74 1442.38,170.01 1440.15,170.93"/>
    </edge>
    <edge id=":10703807885_0" function="internal">
        <lane id=":10703807885_0_0" index="0" disallow="tram rail_urban rail rail_electric rail_fast ship container cable_car subway aircraft wheelchair scooter drone" speed="13.89" length="8.20" shape="1325.52,234.85 1323.53,236.21 1322.38,237.46 1321.22,238.70 1319.22,240.04"/>
        <lane id=":10703807885_0_1" index="1" disallow="tram rail_urban rail rail_electric rail_fast ship container cable_car subway aircraft wheelchair scooter drone" speed="13.89" length="8.20" shape="1325.52,234.85 1323.29,235.77 1321.63,236.04 1319.95,236.31 1317.72,237.22"/>
    </edge>
    <edge id=":10842005392_0" function="internal">
        <lane id=":10842005392_0_0" index="0" disallow="tram rail_urban rail rail_electric rail_fast ship container cable_car subway aircraft wheelchair scooter drone" speed="11.18" length="8.21" shape="1727.07,1203.18 1729.06,1201.82 1730.22,1200.58 1731.37,1199.34 1733.36,1197.98"/>
        <lane id=":10842005392_0_1" index="1" disallow="tram rail_urban rail rail_electric rail_fast ship container cable_car subway aircraft wheelchair scooter drone" speed="11.18" length="8.21" shape="1727.07,1203.18 1729.30,1202.26 1730.97,1201.99 1732.64,1201.72 1734.87,1200.80"/>
    </edge>
    <edge id=":11043182105_0" function="internal">
        <lane id=":11043182105_0_0" index="0" disallow="tram rail_urban rail rail_electric rail_fast ship container cable_car subway aircraft wheelchair scooter drone" speed="3.65" length="4.67" shape="2206.33,1403.70 2204.90,1403.57 2204.16,1403.06 2204.13,1402.16 2204.81,1400.89"/>
    </edge>
    <edge id=":11140867101_0" function="internal">
        <lane id=":11140867101_0_0" index="0" disallow="tram rail_urban rail rail_electric rail_fast ship container cable_car subway aircraft wheelchair scooter drone" speed="27.78" length="8.21" shape="2121.34,1081.40 2119.35,1082.76 2118.20,1084.00 2117.05,1085.25 2115.06,1086.61"/>
        <lane id=":11140867101_0_1" index="1" disallow="tram rail_urban rail rail_electric rail_fast ship container cable_car subway aircraft wheelchair scooter drone" speed="27.78" length="8.21" shape="2119.82,1078.58 2117.83,1079.94 2116.68,1081.19 2115.53,1082.43 2113.54,1083.79"/>
        <lane id=":11140867101_0_2" index="2" disallow="tram rail_urban rail rail_electric rail_fast ship container cable_car subway aircraft wheelchair scooter drone" speed="27.78" length="8.21" shape="2119.82,1078.58 2117.59,1079.50 2115.92,1079.78 2114.25,1080.06 2112.02,1080.98"/>
    </edge>
    <edge id=":11191334801_0" function="internal">
        <lane id=":11191334801_0_0" index="0" disallow="tram rail_urban rail rail_electric rail_fast ship container cable_car subway aircraft wheelchair scooter drone" speed="11.18" length="8.21" shape="725.85,1056.33 727.21,1058.32 728.46,1059.47 729.70,1060.62 731.06,1062.62"/>
        <lane id=":11191334801_0_1" index="1" disallow="tram rail_urban rail rail_electric rail_fast ship container cable_car subway aircraft wheelchair scooter drone" speed="11.18" length="8.21" shape="723.04,1057.85 724.40,1059.84 725.64,1060.99 726.88,1062.14 728.24,1064.13"/>
        <lane id=":11191334801_0_2" index="2" disallow="tram rail_urban rail rail_electric rail_fast ship container cable_car subway aircraft wheelchair scooter drone" speed="11.18" length="8.21" shape="723.04,1057.85 723.95,1060.08 724.23,1061.75 724.51,1063.42 725.43,1065.65"/>
    </edge>
    <edge id=":11191334802_0" function="internal">
        <lane id=":11191334802_0_0" index="0" disallow="tram rail_urban rail rail_electric rail_fast ship container cable_car subway aircraft wheelchair scooter drone" speed="11.18" length="8.18" shape="384.75,422.92 386.13,424.91 387.39,426.06 388.63,427.22 389.97,429.23"/>
        <lane id=":11191334802_0_1" index="1" disallow="tram rail_urban rail rail_electric rail_fast ship container cable_car subway aircraft wheelchair scooter drone" speed="11.18" length="8.18" shape="381.95,424.47 383.32,426.44 384.57,427.58 385.80,428.72 387.14,430.72"/>
        <lane id=":11191334802_0_2" index="2" disallow="tram rail_urban rail rail_electric rail_fast ship container cable_car subway aircraft wheelchair scooter drone" speed="11.18" length="8.18" shape="381.95,424.47 382.88,426.67 383.15,428.32 383.42,429.98 384.30,432.20"/>
    </edge>
    <edge id=":11191334803_0" function="internal">
        <lane id=":11191334803_0_0" index="0" disallow="tram rail_urban rail rail_electric rail_fast ship container cable_car subway aircraft wheelchair scooter drone" speed="11.18" length="8.21" shape="309.38,280.44 310.74,282.44 311.98,283.59 313.23,284.74 314.59,286.73"/>
        <lane id=":11191334803_0_1" index="1" disallow="tram rail_urban rail rail_electric rail_fast ship container cable_car subway aircraft wheelchair scooter drone" speed="11.18" length="8.21" shape="306.57,281.96 307.92,283.95 309.17,285.10 310.41,286.25 311.77,288.25"/>
        <lane id=":11191334803_0_2" index="2" disallow="tram rail_urban rail rail_electric rail_fast ship container cable_car subway aircraft wheelchair scooter drone" speed="11.18" length="8.21" shape="303.75,283.48 305.10,285.47 306.35,286.62 307.59,287.77 308.95,289.76"/>
        <lane id=":11191334803_0_3" index="3" disallow="tram rail_urban rail rail_electric rail_fast ship container cable_car subway aircraft wheelchair scooter drone" speed="11.18" length="8.21" shape="303.75,283.48 304.66,285.71 304.94,287.38 305.22,289.05 306.13,291.28"/>
    </edge>
    <edge id=":11225165128_0" function="internal">
        <lane id=":11225165128_0_0" index="0" disallow="tram rail_urban rail rail_electric rail_fast ship container cable_car subway aircraft wheelchair scooter drone" speed="11.18" length="8.27" width="3.54" shape="88.51,1015.07 92.65,1021.99"/>
        <lane id=":11225165128_0_1" index="1" disallow="tram rail_urban rail rail_electric rail_fast ship container cable_car subway aircraft wheelchair scooter drone" speed="11.18" length="8.27" width="3.54" shape="84.78,1017.10 86.07,1019.12 87.17,1020.37 88.26,1021.63 89.54,1023.66"/>
        <lane id=":11225165128_0_2" index="2" disallow="tram rail_urban rail rail_electric rail_fast ship container cable_car subway aircraft wheelchair scooter drone" speed="11.18" length="8.27" width="3.54" shape="81.06,1019.13 82.45,1021.11 83.75,1022.22 85.04,1023.34 86.42,1025.33"/>
        <lane id=":11225165128_0_3" index="3" disallow="tram rail_urban rail rail_electric rail_fast ship container cable_car subway aircraft wheelchair scooter drone" speed="11.18" length="8.27" width="3.54" shape="77.33,1021.16 78.83,1023.10 80.33,1024.07 81.82,1025.05 83.30,1027.00"/>
        <lane id=":11225165128_0_4" index="4" disallow="tram rail_urban rail rail_electric rail_fast ship container cable_car subway aircraft wheelchair scooter drone" speed="11.18" length="8.27" width="3.54" shape="73.61,1023.19 75.22,1025.10 76.91,1025.92 78.59,1026.75 80.19,1028.67"/>
        <lane id=":11225165128_0_5" index="5" disallow="tram rail_urban rail rail_electric rail_fast ship container cable_car subway aircraft wheelchair scooter drone" speed="11.18" length="8.27" width="3.54" shape="73.61,1023.19 77.07,1030.34"/>
    </edge>
    <edge id=":11337295604_0" function="internal">
        <lane id=":11337295604_0_0" index="0" disallow="tram rail_urban rail rail_electric rail_fast ship container cable_car subway aircraft wheelchair scooter drone" speed="7.30" length="11.61" shape="1799.75,264.22 1798.10,262.33 1795.83,261.57 1792.95,261.94 1789.45,263.44"/>
    </edge>
    <edge id=":11337295604_1" function="internal">
        <lane id=":11337295604_1_0" index="0" disallow="tram rail_urban rail rail_electric rail_fast ship container cable_car subway aircraft wheelchair scooter drone" speed="19.48" length="25.12" shape="1799.75,264.22 1795.85,258.12 1792.53,254.36 1789.21,250.60 1785.32,244.50"/>
        <lane id=":11337295604_1_1" index="1" disallow="tram rail_urban rail rail_electric rail_fast ship container cable_car subway aircraft wheelchair scooter drone" speed="19.48" length="25.12" shape="1802.56,262.69 1798.59,256.47 1795.23,252.63 1791.87,248.78 1787.91,242.56"/>
        <lane id=":11337295604_1_2" index="2" disallow="tram rail_urban rail rail_electric rail_fast ship container cable_car subway aircraft wheelchair scooter drone" speed="19.48" length="25.12" shape="1805.37,261.16 1801.34,254.82 1797.93,250.89 1794.52,246.97 1790.50,240.63"/>
        <lane id=":11337295604_1_3" index="3" disallow="tram rail_urban rail rail_electric rail_fast ship container cable_car subway aircraft wheelchair scooter drone" speed="19.48" length="25.12" shape="1805.37,261.16 1793.08,238.69"/>
    </edge>
    <edge id=":11337295604_5" function="internal">
        <lane id=":11337295604_5_0" index="0" disallow="tram rail_urban rail rail_electric rail_fast ship container cable_car subway aircraft wheelchair scooter drone" speed="8.87" length="17.67" shape="1805.37,261.16 1802.51,255.15 1801.20,250.45 1801.45,247.07 1803.25,245.00"/>
        <lane id=":11337295604_5_1" index="1" disallow="tram rail_urban rail rail_electric rail_fast ship container cable_car subway aircraft wheelchair scooter drone" speed="8.15" length="14.75" shape="1805.37,261.16 1803.18,256.38 1802.35,252.56 1802.89,249.70 1804.78,247.81"/>
    </edge>
    <edge id=":11337295604_7" function="internal">
        <lane id=":11337295604_7_0" index="0" disallow="tram rail_urban rail rail_electric rail_fast ship container cable_car subway aircraft wheelchair scooter drone" speed="11.18" length="20.94" shape="1807.84,253.44 1789.45,263.44"/>
        <lane id=":11337295604_7_1" index="1" disallow="tram rail_urban rail rail_electric rail_fast ship container cable_car subway aircraft wheelchair scooter drone" speed="11.18" length="20.94" shape="1806.31,250.63 1787.92,260.63"/>
    </edge>
    <edge id=":11337295604_9" function="internal">
        <lane id=":11337295604_9_0" index="0" disallow="tram rail_urban rail rail_electric rail_fast ship container cable_car subway aircraft wheelchair scooter drone" speed="3.65" length="1.44" shape="1806.31,250.63 1804.88,250.50"/>
    </edge>
    <edge id=":11337295604_16" function="internal">
        <lane id=":11337295604_16_0" index="0" disallow="tram rail_urban rail rail_electric rail_fast ship container cable_car subway aircraft wheelchair scooter drone" speed="3.65" length="3.23" shape="1804.88,250.50 1804.14,249.98 1804.11,249.09 1804.78,247.81"/>
    </edge>
    <edge id=":11337295604_10" function="internal">
        <lane id=":11337295604_10_0" index="0" disallow="tram rail_urban rail rail_electric rail_fast ship container cable_car subway aircraft wheelchair scooter drone" speed="6.51" length="9.07" shape="1783.34,252.20 1785.25,250.75 1786.21,248.98 1786.24,246.90 1785.32,244.50"/>
        <lane id=":11337295604_10_1" index="1" disallow="tram rail_urban rail rail_electric rail_fast ship container cable_car subway aircraft wheelchair scooter drone" speed="7.42" length="12.08" shape="1783.34,252.20 1786.46,250.05 1788.27,247.73 1788.75,245.24 1787.91,242.56"/>
    </edge>
    <edge id=":11337295604_12" function="internal">
        <lane id=":11337295604_12_0" index="0" disallow="tram rail_urban rail rail_electric rail_fast ship container cable_car subway aircraft wheelchair scooter drone" speed="11.18" length="20.93" shape="1783.34,252.20 1801.72,242.19"/>
        <lane id=":11337295604_12_1" index="1" disallow="tram rail_urban rail rail_electric rail_fast ship container cable_car subway aircraft wheelchair scooter drone" speed="11.18" length="20.93" shape="1784.86,255.01 1803.25,245.00"/>
        <lane id=":11337295604_12_2" index="2" disallow="tram rail_urban rail rail_electric rail_fast ship container cable_car subway aircraft wheelchair scooter drone" speed="11.18" length="20.93" shape="1786.39,257.82 1804.78,247.81"/>
    </edge>
    <edge id=":11337295604_15" function="internal">
        <lane id=":11337295604_15_0" index="0" disallow="tram rail_urban rail rail_electric rail_fast ship container cable_car subway aircraft wheelchair scooter drone" speed="3.65" length="1.44" shape="1786.39,257.82 1787.83,257.95"/>
    </edge>
    <edge id=":11337295604_17" function="internal">
        <lane id=":11337295604_17_0" index="0" disallow="tram rail_urban rail rail_electric rail_fast ship container cable_car subway aircraft wheelchair scooter drone" speed="3.65" length="3.23" shape="1787.83,257.95 1788.56,258.46 1788.60,259.35 1787.92,260.63"/>
    </edge>
    <edge id=":11337295608_0" function="internal">
        <lane id=":11337295608_0_0" index="0" disallow="tram rail_urban rail rail_electric rail_fast ship container cable_car subway aircraft wheelchair scooter drone" speed="6.52" length="9.06" shape="1947.74,181.83 1945.73,183.30 1944.67,185.05 1944.56,187.09 1945.41,189.42"/>
        <lane id=":11337295608_0_1" index="1" disallow="tram rail_urban rail rail_electric rail_fast ship container cable_car subway aircraft wheelchair scooter drone" speed="7.34" length="11.75" shape="1947.74,181.83 1944.49,183.96 1942.55,186.19 1941.92,188.51 1942.58,190.93"/>
    </edge>
    <edge id=":11337295608_2" function="internal">
        <lane id=":11337295608_2_0" index="0" disallow="tram rail_urban rail rail_electric rail_fast ship container cable_car subway aircraft wheelchair scooter drone" speed="11.18" length="27.61" shape="1947.74,181.83 1939.82,185.45 1933.61,187.44 1928.03,189.13 1922.05,191.84"/>
        <lane id=":11337295608_2_1" index="1" disallow="tram rail_urban rail rail_electric rail_fast ship container cable_car subway aircraft wheelchair scooter drone" speed="11.18" length="27.61" shape="1946.22,179.00 1938.32,182.62 1932.12,184.61 1926.55,186.29 1920.57,189.00"/>
    </edge>
    <edge id=":11337295608_4" function="internal">
        <lane id=":11337295608_4_0" index="0" disallow="tram rail_urban rail rail_electric rail_fast ship container cable_car subway aircraft wheelchair scooter drone" speed="3.65" length="1.44" shape="1944.71,176.18 1943.28,176.04"/>
    </edge>
    <edge id=":11337295608_18" function="internal">
        <lane id=":11337295608_18_0" index="0" disallow="tram rail_urban rail rail_electric rail_fast ship container cable_car subway aircraft wheelchair scooter drone" speed="3.65" length="3.23" shape="1943.28,176.04 1942.55,175.53 1942.52,174.63 1943.20,173.36"/>
    </edge>
    <edge id=":11337295608_5" function="internal">
        <lane id=":11337295608_5_0" index="0" disallow="tram rail_urban rail rail_electric rail_fast ship container cable_car subway aircraft wheelchair scooter drone" speed="7.34" length="11.81" shape="1932.57,165.34 1934.71,168.61 1936.94,170.56 1939.27,171.21 1941.69,170.54"/>
    </edge>
    <edge id=":11337295608_6" function="internal">
        <lane id=":11337295608_6_0" index="0" disallow="tram rail_urban rail rail_electric rail_fast ship container cable_car subway aircraft wheelchair scooter drone" speed="11.18" length="27.29" shape="1932.57,165.34 1945.41,189.42"/>
        <lane id=":11337295608_6_1" index="1" disallow="tram rail_urban rail rail_electric rail_fast ship container cable_car subway aircraft wheelchair scooter drone" speed="11.18" length="27.29" shape="1929.75,166.84 1942.58,190.93"/>
        <lane id=":11337295608_6_2" index="2" disallow="tram rail_urban rail rail_electric rail_fast ship container cable_car subway aircraft wheelchair scooter drone" speed="11.18" length="27.29" shape="1926.92,168.35 1939.76,192.43"/>
        <lane id=":11337295608_6_3" index="3" disallow="tram rail_urban rail rail_electric rail_fast ship container cable_car subway aircraft wheelchair scooter drone" speed="11.18" length="27.29" shape="1924.10,169.86 1936.93,193.93"/>
        <lane id=":11337295608_6_4" index="4" disallow="tram rail_urban rail rail_electric rail_fast ship container cable_car subway aircraft wheelchair scooter drone" speed="11.18" length="27.29" shape="1921.28,171.36 1934.11,195.44"/>
        <lane id=":11337295608_6_5" index="5" disallow="tram rail_urban rail rail_electric rail_fast ship container cable_car subway aircraft wheelchair scooter drone" speed="11.18" length="27.29" shape="1918.45,172.87 1931.28,196.94"/>
    </edge>
    <edge id=":11337295608_12" function="internal">
        <lane id=":11337295608_12_0" index="0" disallow="tram rail_urban rail rail_electric rail_fast ship container cable_car subway aircraft wheelchair scooter drone" speed="8.91" length="17.57" shape="1918.45,172.87 1921.25,178.88 1922.53,183.57 1922.31,186.95 1920.57,189.00"/>
    </edge>
    <edge id=":11337295608_13" function="internal">
        <lane id=":11337295608_13_0" index="0" disallow="tram rail_urban rail rail_electric rail_fast ship container cable_car subway aircraft wheelchair scooter drone" speed="11.18" length="27.49" shape="1916.14,180.48 1923.94,176.77 1930.10,174.77 1935.66,173.14 1941.69,170.54"/>
        <lane id=":11337295608_13_1" index="1" disallow="tram rail_urban rail rail_electric rail_fast ship container cable_car subway aircraft wheelchair scooter drone" speed="11.18" length="27.49" shape="1917.62,183.32 1925.43,179.60 1931.60,177.60 1937.17,175.97 1943.20,173.36"/>
    </edge>
    <edge id=":11337295608_15" function="internal">
        <lane id=":11337295608_15_0" index="0" disallow="tram rail_urban rail rail_electric rail_fast ship container cable_car subway aircraft wheelchair scooter drone" speed="9.29" length="3.98" shape="1919.10,186.16 1922.94,185.12"/>
        <lane id=":11337295608_15_1" index="1" disallow="tram rail_urban rail rail_electric rail_fast ship container cable_car subway aircraft wheelchair scooter drone" speed="8.79" length="2.42" shape="1919.10,186.16 1921.50,185.83"/>
    </edge>
    <edge id=":11337295608_17" function="internal">
        <lane id=":11337295608_17_0" index="0" disallow="tram rail_urban rail rail_electric rail_fast ship container cable_car subway aircraft wheelchair scooter drone" speed="3.65" length="1.44" shape="1919.10,186.16 1920.53,186.32"/>
    </edge>
    <edge id=":11337295608_19" function="internal">
        <lane id=":11337295608_19_0" index="0" disallow="tram rail_urban rail rail_electric rail_fast ship container cable_car subway aircraft wheelchair scooter drone" speed="9.29" length="15.80" shape="1922.94,185.12 1926.72,186.31 1930.44,189.76 1934.11,195.44"/>