<?xml version="1.0" encoding="UTF-8"?>

<!-- generated on 2025-04-12 16:27:11 by Eclipse SUMO sumo Version 1.22.0
-->

<sumoConfiguration xmlns:xsi="http://www.w3.org/2001/XMLSchema-instance" xsi:noNamespaceSchemaLocation="http://sumo.dlr.de/xsd/sumoConfiguration.xsd">

    <input>
        <net-file value="newyork167.net.xml"/>
        <route-files value="newyork167.rou.xml"/>
    </input>
  <time>
    <begin value="0" />
    <end value="10000" />
  </time>

</sumoConfiguration>
