<?xml version="1.0" encoding="UTF-8"?>

<!-- generated on 2025-04-12 16:27:11.427304 by osmWebWizard.py UNKNOWN
<configuration>
    <net-file value="/Users/wei/Sumo/2025-04-12-16-26-56/osm.net.xml.gz"/>
    <output-trip-file value="/Users/wei/Sumo/2025-04-12-16-26-56/osm.passenger.trips.xml"/>
    <route-file value="/Users/wei/Sumo/2025-04-12-16-26-56/osm.passenger.rou.xml"/>
    <prefix value="veh"/>
    <trip-attributes value="departLane=&quot;best&quot;"/>
    <fringe-start-attributes value="departSpeed=&quot;max&quot;"/>
    <vehicle-class value="passenger"/>
    <lanes value="True"/>
    <fringe-factor value="5"/>
    <allow-fringe.min-length value="1000.0"/>
    <via-edge-types value="highway.motorway,highway.motorway_link,highway.trunk_link,highway.primary_link,highway.secondary_link,highway.tertiary_link"/>
    <min-distance value="300.0"/>
    <min-distance.fringe value="10.0"/>
    <remove-loops value="True"/>
    <validate value="True"/>
    <insertion-density value="90.0"/>
</configuration>
-->

<!-- generated on 2025-04-12 16:27:11 by Eclipse SUMO duarouter Version 1.22.0
<duarouterConfiguration xmlns:xsi="http://www.w3.org/2001/XMLSchema-instance" xsi:noNamespaceSchemaLocation="http://sumo.dlr.de/xsd/duarouterConfiguration.xsd">

    <input>
        <net-file value="/Users/wei/Sumo/2025-04-12-16-26-56/osm.net.xml.gz"/>
        <route-files value="/Users/wei/Sumo/2025-04-12-16-26-56/osm.passenger.trips.xml"/>
    </input>

    <output>
        <output-file value="/Users/wei/Sumo/2025-04-12-16-26-56/osm.passenger.trips.xml.tmp"/>
        <alternatives-output value="NUL"/>
        <write-trips value="true"/>
    </output>

    <processing>
        <remove-loops value="true"/>
    </processing>

    <time>
        <begin value="0.0"/>
        <end value="3600.0"/>
    </time>

    <report>
        <no-warnings value="true"/>
        <ignore-errors value="true"/>
        <no-step-log value="true"/>
    </report>

</duarouterConfiguration>
-->

<routes xmlns:xsi="http://www.w3.org/2001/XMLSchema-instance" xsi:noNamespaceSchemaLocation="http://sumo.dlr.de/xsd/routes_file.xsd">
    <vType id="veh_passenger" vClass="passenger"/>
    <trip id="veh0" type="veh_passenger" depart="0.00" departLane="best" from="458180189#0" to="-36806903"/>
    <trip id="veh1" type="veh_passenger" depart="0.41" departLane="best" from="125480075#0" to="1150636500#0"/>
    <trip id="veh2" type="veh_passenger" depart="0.81" departLane="best" from="569345540#0" to="1027181006#0"/>
    <trip id="veh3" type="veh_passenger" depart="1.22" departLane="best" from="273895450#0" to="-388696206#1"/>
    <trip id="veh4" type="veh_passenger" depart="1.62" departLane="best" from="1150636499#0" to="420906743#0"/>
    <trip id="veh5" type="veh_passenger" depart="2.03" departLane="best" from="-420356168#4" to="1123877141#0"/>
    <trip id="veh6" type="veh_passenger" depart="2.44" departLane="best" from="458180192#0" to="438385431#3"/>
    <trip id="veh7" type="veh_passenger" depart="2.84" departLane="best" from="1150636501#0" to="458166897#21"/>
    <trip id="veh8" type="veh_passenger" depart="3.25" departLane="best" from="511699182#3" to="46334593#0"/>
    <trip id="veh9" type="veh_passenger" depart="3.65" departLane="best" from="771759765" to="525729009#0"/>
    <trip id="veh11" type="veh_passenger" depart="4.46" departLane="best" from="511699183#0" to="46481747#0"/>
    <trip id="veh12" type="veh_passenger" depart="4.87" departLane="best" from="420906753#0" to="945460473#0"/>
    <trip id="veh13" type="veh_passenger" depart="5.28" departLane="best" from="542257430#0" to="458177133#0"/>
    <trip id="veh14" type="veh_passenger" depart="5.68" departLane="best" departSpeed="max" from="5671115" to="458166897#15"/>
    <trip id="veh15" type="veh_passenger" depart="6.09" departLane="best" from="1207834767#0" to="-525729008#5"/>
    <trip id="veh16" type="veh_passenger" depart="6.49" departLane="best" from="1198594027" to="1316831695#0"/>
    <trip id="veh17" type="veh_passenger" depart="6.90" departLane="best" from="1034529064#0" to="1316295725#4"/>
    <trip id="veh18" type="veh_passenger" depart="7.31" departLane="best" from="458180187#3" to="195743190#0"/>
    <trip id="veh19" type="veh_passenger" depart="7.71" departLane="best" departSpeed="max" from="195743182#0" to="1135614655#0"/>
    <trip id="veh20" type="veh_passenger" depart="8.12" departLane="best" departSpeed="max" from="1211608942#0" to="743358444#1"/>
    <trip id="veh21" type="veh_passenger" depart="8.52" departLane="best" from="458180191#3" to="458166897#6"/>
    <trip id="veh22" type="veh_passenger" depart="8.93" departLane="best" from="968513231#0" to="458180187#6"/>
    <trip id="veh23" type="veh_passenger" depart="9.33" departLane="best" from="438385431#0" to="460585328#7"/>
    <trip id="veh24" type="veh_passenger" depart="9.74" departLane="best" departSpeed="max" from="5670600#0" to="497165756#3"/>
    <trip id="veh25" type="veh_passenger" depart="10.15" departLane="best" from="1198594029#0" to="-388696206#1"/>
    <trip id="veh26" type="veh_passenger" depart="10.55" departLane="best" departSpeed="max" from="1136460176#0" to="747908052#0"/>
    <trip id="veh27" type="veh_passenger" depart="10.96" departLane="best" from="569345515#0" to="1376704196#0"/>
    <trip id="veh28" type="veh_passenger" depart="11.36" departLane="best" from="458180193#3" to="226041027#0"/>
    <trip id="veh29" type="veh_passenger" depart="11.77" departLane="best" departSpeed="max" from="60325668" to="420496529#0"/>
    <trip id="veh30" type="veh_passenger" depart="12.18" departLane="best" departSpeed="max" from="1211608942#0" to="1201651437#3"/>
    <trip id="veh31" type="veh_passenger" depart="12.58" departLane="best" from="438385431#3" to="125480075#0"/>
    <trip id="veh33" type="veh_passenger" depart="13.39" departLane="best" from="195743345#0" to="1150636496#0"/>
    <trip id="veh34" type="veh_passenger" depart="13.80" departLane="best" from="-988980354" to="420906753#0"/>
    <trip id="veh35" type="veh_passenger" depart="14.21" departLane="best" departSpeed="max" from="1030123273#1" to="-5670600#1"/>
    <trip id="veh36" type="veh_passenger" depart="14.61" departLane="best" from="1041012063#0" to="458180183#0"/>
    <trip id="veh37" type="veh_passenger" depart="15.02" departLane="best" from="1021065071#0" to="226041006#0"/>
    <trip id="veh38" type="veh_passenger" depart="15.42" departLane="best" from="988977545#5" to="420907908#0"/>
    <trip id="veh39" type="veh_passenger" depart="15.83" departLane="best" from="895394557#0" to="5673497#0"/>
    <trip id="veh40" type="veh_passenger" depart="16.23" departLane="best" from="-1321771943#1" to="464543615#0"/>
    <trip id="veh41" type="veh_passenger" depart="16.64" departLane="best" departSpeed="max" from="1211608942#0" to="458180188#0"/>
    <trip id="veh42" type="veh_passenger" depart="17.05" departLane="best" from="1041012063#0" to="397795463#0"/>
    <trip id="veh44" type="veh_passenger" depart="17.86" departLane="best" from="569345508#0" to="125480075#0"/>
    <trip id="veh45" type="veh_passenger" depart="18.26" departLane="best" from="600848485#0" to="569345515#6"/>
    <trip id="veh46" type="veh_passenger" depart="18.67" departLane="best" from="1316295725#4" to="458180187#6"/>
    <trip id="veh48" type="veh_passenger" depart="19.48" departLane="best" departSpeed="max" from="496982024#0" to="438384693#0"/>
    <trip id="veh49" type="veh_passenger" depart="19.89" departLane="best" from="497165753#0" to="420907908#0"/>
    <trip id="veh50" type="veh_passenger" depart="20.29" departLane="best" from="1088325197#0" to="1376929274#0"/>
    <trip id="veh51" type="veh_passenger" depart="20.70" departLane="best" departSpeed="max" from="-226041024" to="68674968#0"/>
    <trip id="veh52" type="veh_passenger" depart="21.11" departLane="best" from="569345515#3" to="5669227"/>
    <trip id="veh53" type="veh_passenger" depart="21.51" departLane="best" from="1316831695#0" to="-68325079#1"/>
    <trip id="veh55" type="veh_passenger" depart="22.32" departLane="best" from="1030123270#0" to="420901921#0"/>
    <trip id="veh56" type="veh_passenger" depart="22.73" departLane="best" departSpeed="max" from="496982024#0" to="1049879867#0"/>
    <trip id="veh57" type="veh_passenger" depart="23.13" departLane="best" from="-420356169#2" to="438385431#6"/>
    <trip id="veh58" type="veh_passenger" depart="23.54" departLane="best" departSpeed="max" from="1211608942#0" to="569345525#0"/>
    <trip id="veh59" type="veh_passenger" depart="23.95" departLane="best" departSpeed="max" from="36806680" to="1135620537#0"/>
    <trip id="veh60" type="veh_passenger" depart="24.35" departLane="best" from="420906755#0" to="46481747#0"/>
    <trip id="veh61" type="veh_passenger" depart="24.76" departLane="best" departSpeed="max" from="1135661890#0" to="1361048663"/>
    <trip id="veh62" type="veh_passenger" depart="25.16" departLane="best" departSpeed="max" from="988977545#0" to="458180186#0"/>
    <trip id="veh63" type="veh_passenger" depart="25.57" departLane="best" departSpeed="max" from="36807164" to="420907903"/>
    <trip id="veh65" type="veh_passenger" depart="26.38" departLane="best" from="569345515#0" to="458166897#21"/>
    <trip id="veh66" type="veh_passenger" depart="26.79" departLane="best" from="1198594029#0" to="1150636497#0"/>
    <trip id="veh67" type="veh_passenger" depart="27.19" departLane="best" from="1198594029#0" to="569345546#0"/>
    <trip id="veh68" type="veh_passenger" depart="27.60" departLane="best" departSpeed="max" from="5671115" to="1021065071#0"/>
    <trip id="veh70" type="veh_passenger" depart="28.41" departLane="best" departSpeed="max" from="68325079#0" to="458166897#0"/>
    <trip id="veh71" type="veh_passenger" depart="28.82" departLane="best" from="420281339#0" to="497165757"/>
    <trip id="veh72" type="veh_passenger" depart="29.22" departLane="best" from="511699183#0" to="1106482768#0"/>
    <trip id="veh73" type="veh_passenger" depart="29.63" departLane="best" departSpeed="max" from="36806680" to="420496529#0"/>
    <trip id="veh75" type="veh_passenger" depart="30.44" departLane="best" from="966105510#0" to="1030139835"/>
    <trip id="veh76" type="veh_passenger" depart="30.85" departLane="best" from="226041001#0" to="194926851#0"/>
    <trip id="veh77" type="veh_passenger" depart="31.25" departLane="best" departSpeed="max" from="5671115" to="1207834767#0"/>
    <trip id="veh78" type="veh_passenger" depart="31.66" departLane="best" from="1135620537#0" to="420356172#0"/>
    <trip id="veh79" type="veh_passenger" depart="32.06" departLane="best" from="273895450#0" to="1316295725#4"/>
    <trip id="veh80" type="veh_passenger" depart="32.47" departLane="best" from="1211049194#0" to="68674960#0"/>
    <trip id="veh81" type="veh_passenger" depart="32.88" departLane="best" from="421850830#0" to="-5670600#1"/>
    <trip id="veh82" type="veh_passenger" depart="33.28" departLane="best" from="988984235#0" to="5669227"/>
    <trip id="veh84" type="veh_passenger" depart="34.09" departLane="best" from="458180187#6" to="1135620538#0"/>
    <trip id="veh85" type="veh_passenger" depart="34.50" departLane="best" from="196117039#0" to="-68325079#1"/>
    <trip id="veh86" type="veh_passenger" depart="34.90" departLane="best" from="-195743208#5" to="968513229#0"/>
    <trip id="veh87" type="veh_passenger" depart="35.31" departLane="best" departSpeed="max" from="1211608942#0" to="497165757"/>
    <trip id="veh88" type="veh_passenger" depart="35.72" departLane="best" from="-384826723#2" to="384649120#11"/>
    <trip id="veh89" type="veh_passenger" depart="36.12" departLane="best" from="771759765" to="988977545#2"/>
    <trip id="veh90" type="veh_passenger" depart="36.53" departLane="best" from="438384693#3" to="464516471#7"/>
    <trip id="veh91" type="veh_passenger" depart="36.93" departLane="best" from="1051750427#0" to="1320234484#0"/>
    <trip id="veh92" type="veh_passenger" depart="37.34" departLane="best" from="872052109#0" to="458166897#15"/>
    <trip id="veh93" type="veh_passenger" depart="37.75" departLane="best" from="420907902#0" to="483236728#0"/>
    <trip id="veh94" type="veh_passenger" depart="38.15" departLane="best" from="1021047632#0" to="458166897#18"/>
    <trip id="veh95" type="veh_passenger" depart="38.56" departLane="best" from="420901920#0" to="5671709#0"/>
    <trip id="veh96" type="veh_passenger" depart="38.96" departLane="best" from="1051750428#0" to="771759769#0"/>
    <trip id="veh99" type="veh_passenger" depart="40.18" departLane="best" from="1201651434#0" to="1041012063#0"/>
    <trip id="veh100" type="veh_passenger" depart="40.59" departLane="best" from="569345538#0" to="1201651437#3"/>
    <trip id="veh101" type="veh_passenger" depart="40.99" departLane="best" from="458166897#12" to="458177133#0"/>
    <trip id="veh102" type="veh_passenger" depart="41.40" departLane="best" from="273895449#0" to="458166897#18"/>
    <trip id="veh104" type="veh_passenger" depart="42.21" departLane="best" from="1136391284#0" to="464516471#7"/>
    <trip id="veh105" type="veh_passenger" depart="42.62" departLane="best" from="1201651435#3" to="226041028#0"/>
    <trip id="veh106" type="veh_passenger" depart="43.02" departLane="best" from="460585328#2" to="1320234484#5"/>
    <trip id="veh108" type="veh_passenger" depart="43.83" departLane="best" from="1023238044" to="420496529#0"/>
    <trip id="veh109" type="veh_passenger" depart="44.24" departLane="best" from="988984235#0" to="988977545#5"/>
    <trip id="veh110" type="veh_passenger" depart="44.65" departLane="best" from="1023238044" to="1135620538#0"/>
    <trip id="veh111" type="veh_passenger" depart="45.05" departLane="best" departSpeed="max" from="1211608942#0" to="727702633"/>
    <trip id="veh112" type="veh_passenger" depart="45.46" departLane="best" from="1376704198#0" to="569345537#3"/>
    <trip id="veh113" type="veh_passenger" depart="45.86" departLane="best" departSpeed="max" from="195743182#0" to="1051750427#0"/>
    <trip id="veh114" type="veh_passenger" depart="46.27" departLane="best" from="542258061#0" to="464516471#0"/>
    <trip id="veh115" type="veh_passenger" depart="46.67" departLane="best" from="458166897#9" to="968513229#0"/>
    <trip id="veh116" type="veh_passenger" depart="47.08" departLane="best" from="458180193#3" to="-1320290376#1"/>
    <trip id="veh117" type="veh_passenger" depart="47.49" departLane="best" from="525729008#0" to="1320234484#5"/>
    <trip id="veh118" type="veh_passenger" depart="47.89" departLane="best" from="458180196#0" to="747908052#0"/>
    <trip id="veh120" type="veh_passenger" depart="48.70" departLane="best" from="1038780408#0" to="438385431#9"/>
    <trip id="veh121" type="veh_passenger" depart="49.11" departLane="best" from="125479721#0" to="458166897#3"/>
    <trip id="veh122" type="veh_passenger" depart="49.52" departLane="best" departSpeed="max" from="46492010" to="1124078897#0"/>
    <trip id="veh123" type="veh_passenger" depart="49.92" departLane="best" from="458180187#0" to="125480075#0"/>
    <trip id="veh124" type="veh_passenger" depart="50.33" departLane="best" departSpeed="max" from="420499931#0" to="569345546#0"/>
    <trip id="veh125" type="veh_passenger" depart="50.73" departLane="best" departSpeed="max" from="5670600#0" to="1030123270#0"/>
    <trip id="veh126" type="veh_passenger" depart="51.14" departLane="best" departSpeed="max" from="36806680" to="1316295725#3"/>
    <trip id="veh127" type="veh_passenger" depart="51.55" departLane="best" from="-1272613980#2" to="497165756#3"/>
    <trip id="veh128" type="veh_passenger" depart="51.95" departLane="best" from="458180187#6" to="125480075#0"/>
    <trip id="veh129" type="veh_passenger" depart="52.36" departLane="best" from="46522002#0" to="438385431#9"/>
    <trip id="veh130" type="veh_passenger" depart="52.76" departLane="best" departSpeed="max" from="36806903" to="-1320549615#1"/>
    <trip id="veh131" type="veh_passenger" depart="53.17" departLane="best" from="1025734022#0" to="569345537#3"/>
    <trip id="veh132" type="veh_passenger" depart="53.57" departLane="best" from="569345546#0" to="438385431#3"/>
    <trip id="veh133" type="veh_passenger" depart="53.98" departLane="best" from="464516471#10" to="458166897#18"/>
    <trip id="veh134" type="veh_passenger" depart="54.39" departLane="best" from="1316831695#0" to="569345544#0"/>
    <trip id="veh135" type="veh_passenger" depart="54.79" departLane="best" from="569345544#0" to="1135614655#0"/>
    <trip id="veh136" type="veh_passenger" depart="55.20" departLane="best" from="1207834768#0" to="1030139835"/>
    <trip id="veh137" type="veh_passenger" depart="55.60" departLane="best" from="497165753#0" to="569345537#3"/>
    <trip id="veh138" type="veh_passenger" depart="56.01" departLane="best" from="226041011#1" to="458180181#0"/>
    <trip id="veh139" type="veh_passenger" depart="56.42" departLane="best" departSpeed="max" from="5671192#1" to="954520389#0"/>
    <trip id="veh140" type="veh_passenger" depart="56.82" departLane="best" from="511699184#0" to="569345537#3"/>
    <trip id="veh142" type="veh_passenger" depart="57.63" departLane="best" from="1049841322#0" to="717625447#2"/>
    <trip id="veh143" type="veh_passenger" depart="58.04" departLane="best" from="511699182#0" to="1201651435#0"/>
    <trip id="veh144" type="veh_passenger" depart="58.45" departLane="best" from="511699184#0" to="127693103#0"/>
    <trip id="veh145" type="veh_passenger" depart="58.85" departLane="best" from="497165756#0" to="1031879418#0"/>
    <trip id="veh146" type="veh_passenger" depart="59.26" departLane="best" from="1157664114#0" to="525729010#0"/>
    <trip id="veh147" type="veh_passenger" depart="59.66" departLane="best" departSpeed="max" from="388696206#0" to="1321771943#0"/>
    <trip id="veh148" type="veh_passenger" depart="60.07" departLane="best" from="505317789#0" to="1165644579#0"/>
    <trip id="veh149" type="veh_passenger" depart="60.47" departLane="best" from="-384649121#7" to="1117867040#1"/>
    <trip id="veh150" type="veh_passenger" depart="60.88" departLane="best" from="1364312922" to="1201651435#0"/>
    <trip id="veh151" type="veh_passenger" depart="61.29" departLane="best" from="458180190#0" to="273895448#0"/>
    <trip id="veh152" type="veh_passenger" depart="61.69" departLane="best" from="963613972#0" to="421850830#0"/>
    <trip id="veh154" type="veh_passenger" depart="62.50" departLane="best" from="895394557#0" to="-1088325197#1"/>
    <trip id="veh155" type="veh_passenger" depart="62.91" departLane="best" from="803047266#0" to="1272613980#0"/>
    <trip id="veh156" type="veh_passenger" depart="63.32" departLane="best" from="1040888764#0" to="397795463#0"/>
    <trip id="veh157" type="veh_passenger" depart="63.72" departLane="best" departSpeed="max" from="46492010" to="1376704196#0"/>
    <trip id="veh158" type="veh_passenger" depart="64.13" departLane="best" from="458166897#3" to="420906755#0"/>
    <trip id="veh159" type="veh_passenger" depart="64.53" departLane="best" departSpeed="max" from="195743336#1" to="458166897#12"/>
    <trip id="veh160" type="veh_passenger" depart="64.94" departLane="best" departSpeed="max" from="1211608942#0" to="464516471#13"/>
    <trip id="veh161" type="veh_passenger" depart="65.34" departLane="best" from="-1136952921#1" to="68674961#6"/>
    <trip id="veh162" type="veh_passenger" depart="65.75" departLane="best" from="420906755#0" to="464543614#0"/>
    <trip id="veh163" type="veh_passenger" depart="66.16" departLane="best" from="384649120#2" to="458180196#0"/>
    <trip id="veh165" type="veh_passenger" depart="66.97" departLane="best" from="458180196#0" to="167922072#0"/>
    <trip id="veh166" type="veh_passenger" depart="67.37" departLane="best" from="1320232776#0" to="5671709#0"/>
    <trip id="veh167" type="veh_passenger" depart="67.78" departLane="best" departSpeed="max" from="46492010" to="1320234484#5"/>
    <trip id="veh168" type="veh_passenger" depart="68.19" departLane="best" from="1316831695#0" to="350726030#0"/>
    <trip id="veh169" type="veh_passenger" depart="68.59" departLane="best" from="195743182#3" to="1320232776#0"/>
    <trip id="veh170" type="veh_passenger" depart="69.00" departLane="best" from="1049841322#0" to="384178816#3"/>
    <trip id="veh171" type="veh_passenger" depart="69.40" departLane="best" from="68674961#6" to="460585328#0"/>
    <trip id="veh172" type="veh_passenger" depart="69.81" departLane="best" from="569345546#0" to="458166897#9"/>
    <trip id="veh173" type="veh_passenger" depart="70.22" departLane="best" from="1316295726#0" to="438385431#6"/>
    <trip id="veh174" type="veh_passenger" depart="70.62" departLane="best" from="1088325197#0" to="1316831694#0"/>
    <trip id="veh175" type="veh_passenger" depart="71.03" departLane="best" departSpeed="max" from="36806903" to="458166897#15"/>
    <trip id="veh176" type="veh_passenger" depart="71.43" departLane="best" from="458180193#3" to="420496529#0"/>
    <trip id="veh177" type="veh_passenger" depart="71.84" departLane="best" from="384178816#0" to="1135620538#0"/>
    <trip id="veh178" type="veh_passenger" depart="72.24" departLane="best" from="420281339#0" to="569345544#0"/>
    <trip id="veh179" type="veh_passenger" depart="72.65" departLane="best" from="511699175#0" to="1061623142#0"/>
    <trip id="veh180" type="veh_passenger" depart="73.06" departLane="best" from="1030123270#0" to="420907902#0"/>
    <trip id="veh181" type="veh_passenger" depart="73.46" departLane="best" from="458180186#4" to="525729009#0"/>
    <trip id="veh182" type="veh_passenger" depart="73.87" departLane="best" from="525729009#0" to="492489884#0"/>
    <trip id="veh184" type="veh_passenger" depart="74.68" departLane="best" departSpeed="max" from="1135661890#0" to="-36806903"/>
    <trip id="veh185" type="veh_passenger" depart="75.09" departLane="best" from="1207834766" to="420901682#0"/>
    <trip id="veh187" type="veh_passenger" depart="75.90" departLane="best" from="226041028#0" to="458180185#0"/>
    <trip id="veh188" type="veh_passenger" depart="76.30" departLane="best" departSpeed="max" from="1135661890#0" to="460585328#7"/>
    <trip id="veh189" type="veh_passenger" depart="76.71" departLane="best" from="420901682#0" to="1201651435#3"/>
    <trip id="veh190" type="veh_passenger" depart="77.12" departLane="best" from="458180193#6" to="-1272613981#1"/>
    <trip id="veh192" type="veh_passenger" depart="77.93" departLane="best" from="1038780408#0" to="384649120#2"/>
    <trip id="veh193" type="veh_passenger" depart="78.33" departLane="best" departSpeed="max" from="420902584#0" to="-5670600#1"/>
    <trip id="veh194" type="veh_passenger" depart="78.74" departLane="best" from="1207834768#0" to="5671709#0"/>
    <trip id="veh195" type="veh_passenger" depart="79.14" departLane="best" from="386972970#0" to="511699183#0"/>
    <trip id="veh197" type="veh_passenger" depart="79.96" departLane="best" from="569345539#0" to="458166897#9"/>
    <trip id="veh198" type="veh_passenger" depart="80.36" departLane="best" departSpeed="max" from="46492010" to="420906743#0"/>
    <trip id="veh199" type="veh_passenger" depart="80.77" departLane="best" from="542257430#0" to="438385431#6"/>
    <trip id="veh200" type="veh_passenger" depart="81.17" departLane="best" from="569345544#0" to="46522006#0"/>
    <trip id="veh201" type="veh_passenger" depart="81.58" departLane="best" from="420356168#0" to="125479721#0"/>
    <trip id="veh202" type="veh_passenger" depart="81.99" departLane="best" from="1207834768#0" to="458180187#3"/>
    <trip id="veh203" type="veh_passenger" depart="82.39" departLane="best" departSpeed="max" from="496982024#0" to="420907906"/>
    <trip id="veh204" type="veh_passenger" depart="82.80" departLane="best" from="458180184#0" to="1316295725#0"/>
    <trip id="veh205" type="veh_passenger" depart="83.20" departLane="best" from="1027181005#0" to="1316831694#0"/>
    <trip id="veh206" type="veh_passenger" depart="83.61" departLane="best" from="1211608943#0" to="1376704198#3"/>
    <trip id="veh207" type="veh_passenger" depart="84.01" departLane="best" from="420907902#0" to="1049920717#0"/>
    <trip id="veh208" type="veh_passenger" depart="84.42" departLane="best" from="1198594030#0" to="460585328#7"/>
    <trip id="veh209" type="veh_passenger" depart="84.83" departLane="best" departSpeed="max" from="46482537#0" to="1021047632#0"/>
    <trip id="veh210" type="veh_passenger" depart="85.23" departLane="best" from="226041021#0" to="438385431#0"/>
    <trip id="veh211" type="veh_passenger" depart="85.64" departLane="best" from="22916381#0" to="1124078899#0"/>
    <trip id="veh212" type="veh_passenger" depart="86.04" departLane="best" from="273895449#0" to="569345546#0"/>
    <trip id="veh213" type="veh_passenger" depart="86.45" departLane="best" from="448686048#0" to="460585328#7"/>
    <trip id="veh214" type="veh_passenger" depart="86.86" departLane="best" departSpeed="max" from="5671115" to="573228989#0"/>
    <trip id="veh215" type="veh_passenger" depart="87.26" departLane="best" departSpeed="max" from="195743336#1" to="-1272613981#1"/>
    <trip id="veh218" type="veh_passenger" depart="88.48" departLane="best" from="273895448#0" to="483236728#0"/>
    <trip id="veh219" type="veh_passenger" depart="88.89" departLane="best" from="420907908#0" to="458166897#21"/>
    <trip id="veh220" type="veh_passenger" depart="89.29" departLane="best" from="1150636501#0" to="1150636496#0"/>
    <trip id="veh221" type="veh_passenger" depart="89.70" departLane="best" departSpeed="max" from="36807164" to="-384826723#2"/>
    <trip id="veh222" type="veh_passenger" depart="90.10" departLane="best" from="458180186#0" to="460585328#2"/>
    <trip id="veh223" type="veh_passenger" depart="90.51" departLane="best" from="226041004#0" to="1051751160#0"/>
    <trip id="veh224" type="veh_passenger" depart="90.91" departLane="best" from="846142553#0" to="1049879867#0"/>
    <trip id="veh225" type="veh_passenger" depart="91.32" departLane="best" from="458180182#0" to="-36806903"/>
    <trip id="veh226" type="veh_passenger" depart="91.73" departLane="best" departSpeed="max" from="195743336#1" to="448686048#0"/>
    <trip id="veh227" type="veh_passenger" depart="92.13" departLane="best" from="-420356168#4" to="458180188#0"/>
    <trip id="veh228" type="veh_passenger" depart="92.54" departLane="best" from="1049920716#0" to="420496529#0"/>
    <trip id="veh229" type="veh_passenger" depart="92.94" departLane="best" departSpeed="max" from="-747908052#2" to="226041002#0"/>
    <trip id="veh231" type="veh_passenger" depart="93.76" departLane="best" departSpeed="max" from="496982024#0" to="226041002#0"/>
    <trip id="veh233" type="veh_passenger" depart="94.57" departLane="best" from="1211049194#0" to="1025734022#0"/>
    <trip id="veh234" type="veh_passenger" depart="94.97" departLane="best" departSpeed="max" from="-226041024" to="5672149#3"/>
    <trip id="veh235" type="veh_passenger" depart="95.38" departLane="best" from="988984235#0" to="194926856#0"/>
    <trip id="veh236" type="veh_passenger" depart="95.78" departLane="best" from="458180192#0" to="497165757"/>
    <trip id="veh238" type="veh_passenger" depart="96.60" departLane="best" from="727702632#0" to="1123877141#0"/>
    <trip id="veh239" type="veh_passenger" depart="97.00" departLane="best" departSpeed="max" from="-36271338#5" to="1051745205#0"/>
    <trip id="veh240" type="veh_passenger" depart="97.41" departLane="best" from="1046745000#0" to="458180195#0"/>
    <trip id="veh241" type="veh_passenger" depart="97.81" departLane="best" from="438385431#6" to="1136952921#0"/>
    <trip id="veh242" type="veh_passenger" depart="98.22" departLane="best" from="464516471#7" to="573228989#0"/>
    <trip id="veh243" type="veh_passenger" depart="98.63" departLane="best" from="1088325197#0" to="458166897#3"/>
    <trip id="veh245" type="veh_passenger" depart="99.44" departLane="best" from="525729009#0" to="858965315#0"/>
    <trip id="veh246" type="veh_passenger" depart="99.84" departLane="best" from="1040888764#0" to="-36806903"/>
    <trip id="veh247" type="veh_passenger" depart="100.25" departLane="best" from="1316831701" to="460585328#0"/>
    <trip id="veh248" type="veh_passenger" depart="100.66" departLane="best" from="771759766" to="226041028#0"/>
    <trip id="veh250" type="veh_passenger" depart="101.47" departLane="best" from="464516471#13" to="458180183#0"/>
    <trip id="veh251" type="veh_passenger" depart="101.87" departLane="best" from="1036712190" to="497165753#9"/>
    <trip id="veh253" type="veh_passenger" depart="102.68" departLane="best" departSpeed="max" from="1043336433#0" to="966105510#0"/>
    <trip id="veh254" type="veh_passenger" depart="103.09" departLane="best" from="497165753#6" to="194926855#0"/>
    <trip id="veh255" type="veh_passenger" depart="103.50" departLane="best" departSpeed="max" from="36806903" to="195743208#0"/>
    <trip id="veh256" type="veh_passenger" depart="103.90" departLane="best" from="420901921#0" to="194926854#0"/>
    <trip id="veh258" type="veh_passenger" depart="104.71" departLane="best" from="1038780408#0" to="771759769#0"/>
    <trip id="veh259" type="veh_passenger" depart="105.12" departLane="best" from="458180187#3" to="542258337#0"/>
    <trip id="veh260" type="veh_passenger" depart="105.53" departLane="best" departSpeed="max" from="46482537#0" to="397795463#0"/>
    <trip id="veh261" type="veh_passenger" depart="105.93" departLane="best" departSpeed="max" from="46492017" to="858965315#0"/>
    <trip id="veh262" type="veh_passenger" depart="106.34" departLane="best" from="1211608943#0" to="511699185#0"/>
    <trip id="veh263" type="veh_passenger" depart="106.74" departLane="best" from="420906755#0" to="420901920#0"/>
    <trip id="veh264" type="veh_passenger" depart="107.15" departLane="best" departSpeed="max" from="1211608942#0" to="5671709#0"/>
    <trip id="veh265" type="veh_passenger" depart="107.56" departLane="best" from="542257430#0" to="1027181006#0"/>