<additional>
    <polyline id="edge_0_3" color="red" shape="595.6400000000001,527.5599999999998 836.9600000000002,397.5199999999999" layer="2"/>
    <polyline id="edge_3_0" color="red" shape="836.9600000000002,397.5199999999999 595.6400000000001,527.5599999999998" layer="2"/>
    <polyline id="edge_3_20" color="red" shape="836.9600000000002,397.5199999999999 876.6499999999999,471.0100000000001" layer="2"/>
    <polyline id="edge_4_17" color="red" shape="1108.9799999999998,249.69000000000003 1068.74,175.42" layer="2"/>
    <polyline id="edge_5_29" color="red" shape="482.88000000000005,318.33 447.15000000000003,252.25" layer="2"/>
    <polyline id="edge_7_29" color="red" shape="688.54,121.77999999999999 447.15000000000003,252.25" layer="2"/>
    <polyline id="edge_13_31" color="red" shape="307.97,585.53 554.96,452.15000000000003" layer="2"/>
    <polyline id="edge_14_15" color="red" shape="171.03,317.5 411.75,186.78" layer="2"/>
    <polyline id="edge_15_6" color="red" shape="411.75,186.78 653.4,56.76" layer="2"/>
    <polyline id="edge_15_32" color="red" shape="411.75,186.78 381.86,118.49" layer="2"/>
    <polyline id="edge_16_17" color="red" shape="796.1400000000001,321.83 1068.74,175.42" layer="2"/>
    <polyline id="edge_18_27" color="red" shape="99.91999999999999,185.89000000000001 341.38999999999993,55.529999999999994" layer="2"/>
    <polyline id="edge_19_20" color="red" shape="635.2200000000001,601.12 876.6499999999999,471.0100000000001" layer="2"/>
    <polyline id="edge_20_25" color="red" shape="876.6499999999999,471.0100000000001 913.59,540.0299999999999" layer="2"/>
    <polyline id="edge_21_23" color="red" shape="206.36,383.25 240.88000000000005,448.30000000000007" layer="2"/>
    <polyline id="edge_22_14" color="red" shape="135.68000000000004,252.20000000000002 171.03,317.5" layer="2"/>
    <polyline id="edge_23_5" color="red" shape="240.88000000000005,448.30000000000007 482.88000000000005,318.33" layer="2"/>
    <polyline id="edge_25_10" color="red" shape="913.59,540.0299999999999 951.84,610.6999999999999" layer="2"/>
    <polyline id="edge_25_26" color="red" shape="913.59,540.0299999999999 669.7,674.81" layer="2"/>
    <polyline id="edge_28_18" color="red" shape="64.17,114.89 99.91999999999999,185.89000000000001" layer="2"/>
    <polyline id="edge_29_21" color="red" shape="447.15000000000003,252.25 206.36,383.25" layer="2"/>
    <polyline id="edge_31_16" color="red" shape="554.96,452.15000000000003 796.1400000000001,321.83" layer="2"/>
    <polyline id="edge_32_22" color="red" shape="381.86,118.49 135.68000000000004,252.20000000000002" layer="2"/>
</additional>
