<?xml version="1.0" encoding="UTF-8"?>

<!-- generated on 2025-04-15 12:10:45 by Eclipse SUMO netconvert Version 1.22.0
<netconvertConfiguration xmlns:xsi="http://www.w3.org/2001/XMLSchema-instance" xsi:noNamespaceSchemaLocation="http://sumo.dlr.de/xsd/netconvertConfiguration.xsd">

    <input>
        <type-files value="${SUMO_HOME}/data/typemap/osmNetconvert.typ.xml"/>
        <osm-files value="osm_bbox.osm.xml.gz"/>
    </input>

    <output>
        <output-file value="osm.net.xml.gz"/>
        <output.street-names value="true"/>
        <output.original-names value="true"/>
    </output>

    <projection>
        <proj.utm value="true"/>
    </projection>

    <processing>
        <geometry.remove value="true"/>
        <roundabouts.guess value="true"/>
    </processing>

    <tls_building>
        <tls.discard-simple value="true"/>
        <tls.join value="true"/>
        <tls.guess-signals value="true"/>
        <tls.default-type value="actuated"/>
    </tls_building>

    <ramp_guessing>
        <ramps.guess value="true"/>
    </ramp_guessing>

    <edge_removal>
        <keep-edges.by-vclass value="passenger"/>
    </edge_removal>

    <junctions>
        <junctions.join value="true"/>
        <junctions.corner-detail value="5"/>
    </junctions>

</netconvertConfiguration>
-->

<net version="1.20" junctionCornerDetail="5" limitTurnSpeed="5.50" xmlns:xsi="http://www.w3.org/2001/XMLSchema-instance" xsi:noNamespaceSchemaLocation="http://sumo.dlr.de/xsd/net_file.xsd">

    <location netOffset="-584199.22,-4510308.63" convBoundary="0.00,0.00,1130.90,679.79" origBoundary="-74.002702,40.739407,-73.989332,40.745566" projParameter="+proj=utm +zone=18 +ellps=WGS84 +datum=WGS84 +units=m +no_defs"/>

    <type id="highway.residential" priority="3" numLanes="1" speed="13.89" disallow="tram rail_urban rail rail_electric rail_fast ship container cable_car subway aircraft wheelchair scooter drone" oneway="0"/>
    <type id="highway.secondary" priority="11" numLanes="1" speed="27.78" disallow="tram rail_urban rail rail_electric rail_fast ship container cable_car subway aircraft wheelchair scooter drone" oneway="0"/>

    <edge id=":11766549307_0" function="internal">
        <lane id=":11766549307_0_0" index="0" disallow="tram rail_urban rail rail_electric rail_fast ship container cable_car subway aircraft wheelchair scooter drone" speed="11.18" length="9.46" shape="677.57,101.48 679.70,103.33 682.26,103.44 684.84,103.57 687.00,105.48"/>
        <lane id=":11766549307_0_1" index="1" disallow="tram rail_urban rail rail_electric rail_fast ship container cable_car subway aircraft wheelchair scooter drone" speed="11.18" length="9.46" shape="677.57,101.48 679.18,103.41 680.88,104.24 682.58,105.07 684.19,107.00"/>
        <lane id=":11766549307_0_2" index="2" disallow="tram rail_urban rail rail_electric rail_fast ship container cable_car subway aircraft wheelchair scooter drone" speed="11.18" length="9.46" shape="677.57,101.48 681.37,108.52"/>
        <lane id=":11766549307_0_3" index="3" disallow="tram rail_urban rail rail_electric rail_fast ship container cable_car subway aircraft wheelchair scooter drone" speed="11.18" length="9.46" shape="677.57,101.48 678.30,103.89 678.06,105.76 677.83,107.64 678.56,110.04"/>
        <lane id=":11766549307_0_4" index="4" disallow="tram rail_urban rail rail_electric rail_fast ship container cable_car subway aircraft wheelchair scooter drone" speed="11.18" length="9.46" shape="677.57,101.48 677.94,104.28 676.63,106.48 675.33,108.70 675.74,111.56"/>
    </edge>
    <edge id=":11766549308_0" function="internal">
        <lane id=":11766549308_0_0" index="0" disallow="tram rail_urban rail rail_electric rail_fast ship container cable_car subway aircraft wheelchair scooter drone" speed="11.18" length="8.21" shape="751.99,229.79 753.34,231.78 754.59,232.93 755.83,234.08 757.19,236.07"/>
        <lane id=":11766549308_0_1" index="1" disallow="tram rail_urban rail rail_electric rail_fast ship container cable_car subway aircraft wheelchair scooter drone" speed="11.18" length="8.21" shape="749.17,231.31 750.53,233.30 751.77,234.45 753.02,235.60 754.37,237.59"/>
        <lane id=":11766549308_0_2" index="2" disallow="tram rail_urban rail rail_electric rail_fast ship container cable_car subway aircraft wheelchair scooter drone" speed="11.18" length="8.21" shape="746.35,232.83 747.71,234.82 748.95,235.97 750.20,237.12 751.56,239.11"/>
        <lane id=":11766549308_0_3" index="3" disallow="tram rail_urban rail rail_electric rail_fast ship container cable_car subway aircraft wheelchair scooter drone" speed="11.18" length="8.21" shape="743.54,234.35 744.89,236.34 746.14,237.49 747.38,238.64 748.74,240.63"/>
        <lane id=":11766549308_0_4" index="4" disallow="tram rail_urban rail rail_electric rail_fast ship container cable_car subway aircraft wheelchair scooter drone" speed="11.18" length="8.21" shape="743.54,234.35 744.45,236.57 744.73,238.25 745.01,239.92 745.92,242.15"/>
    </edge>
    <edge id=":11766549309_0" function="internal">
        <lane id=":11766549309_0_0" index="0" disallow="tram rail_urban rail rail_electric rail_fast ship container cable_car subway aircraft wheelchair scooter drone" speed="11.18" length="8.27" shape="817.71,351.76 819.32,353.68 821.02,354.52 822.72,355.35 824.33,357.27"/>
        <lane id=":11766549309_0_1" index="1" disallow="tram rail_urban rail rail_electric rail_fast ship container cable_car subway aircraft wheelchair scooter drone" speed="11.18" length="8.27" shape="817.71,351.76 821.52,358.80"/>
        <lane id=":11766549309_0_2" index="2" disallow="tram rail_urban rail rail_electric rail_fast ship container cable_car subway aircraft wheelchair scooter drone" speed="11.18" length="8.27" shape="814.90,353.28 818.70,360.32"/>
        <lane id=":11766549309_0_3" index="3" disallow="tram rail_urban rail rail_electric rail_fast ship container cable_car subway aircraft wheelchair scooter drone" speed="11.18" length="8.27" shape="812.08,354.80 815.88,361.84"/>
        <lane id=":11766549309_0_4" index="4" disallow="tram rail_urban rail rail_electric rail_fast ship container cable_car subway aircraft wheelchair scooter drone" speed="11.18" length="8.27" shape="809.27,356.32 813.07,363.36"/>
        <lane id=":11766549309_0_5" index="5" disallow="tram rail_urban rail rail_electric rail_fast ship container cable_car subway aircraft wheelchair scooter drone" speed="11.18" length="8.27" shape="809.27,356.32 810.00,358.72 809.76,360.60 809.52,362.47 810.25,364.88"/>
    </edge>
    <edge id=":3009534455_0" function="internal">
        <lane id=":3009534455_0_0" index="0" disallow="tram rail_urban rail rail_electric rail_fast ship container cable_car subway aircraft wheelchair scooter drone" speed="3.65" length="4.67" shape="1118.18,243.12 1119.61,243.28 1120.34,243.80 1120.35,244.70 1119.65,245.96"/>
    </edge>
    <edge id=":4205565514_0" function="internal">
        <lane id=":4205565514_0_0" index="0" disallow="tram rail_urban rail rail_electric rail_fast ship container cable_car subway aircraft wheelchair scooter drone" speed="11.18" length="8.19" shape="114.63,206.97 115.94,208.95 117.16,210.08 118.40,211.21 119.76,213.17"/>
        <lane id=":4205565514_0_1" index="1" disallow="tram rail_urban rail rail_electric rail_fast ship container cable_car subway aircraft wheelchair scooter drone" speed="11.18" length="8.19" shape="111.79,208.45 113.11,210.44 114.34,211.59 115.58,212.74 116.95,214.71"/>
        <lane id=":4205565514_0_2" index="2" disallow="tram rail_urban rail rail_electric rail_fast ship container cable_car subway aircraft wheelchair scooter drone" speed="11.18" length="8.19" shape="108.95,209.93 110.28,211.94 111.52,213.10 112.77,214.26 114.15,216.25"/>
        <lane id=":4205565514_0_3" index="3" disallow="tram rail_urban rail rail_electric rail_fast ship container cable_car subway aircraft wheelchair scooter drone" speed="11.18" length="8.19" shape="108.95,209.93 109.85,212.19 110.12,213.87 110.40,215.55 111.34,217.79"/>
    </edge>
    <edge id=":4205565518_0" function="internal">
        <lane id=":4205565518_0_0" index="0" disallow="tram rail_urban rail rail_electric rail_fast ship container cable_car subway aircraft wheelchair scooter drone" speed="11.18" length="8.21" shape="184.08,335.41 185.41,337.40 186.64,338.55 187.88,339.70 189.23,341.68"/>
        <lane id=":4205565518_0_1" index="1" disallow="tram rail_urban rail rail_electric rail_fast ship container cable_car subway aircraft wheelchair scooter drone" speed="11.18" length="8.21" shape="181.24,336.90 182.58,338.90 183.82,340.06 185.06,341.21 186.41,343.20"/>
        <lane id=":4205565518_0_2" index="2" disallow="tram rail_urban rail rail_electric rail_fast ship container cable_car subway aircraft wheelchair scooter drone" speed="11.18" length="8.21" shape="178.41,338.39 179.75,340.40 180.99,341.56 182.23,342.72 183.59,344.72"/>
        <lane id=":4205565518_0_3" index="3" disallow="tram rail_urban rail rail_electric rail_fast ship container cable_car subway aircraft wheelchair scooter drone" speed="11.18" length="8.21" shape="178.41,338.39 179.31,340.64 179.58,342.32 179.86,344.00 180.77,346.23"/>
    </edge>
    <edge id=":4205565523_0" function="internal">
        <lane id=":4205565523_0_0" index="0" disallow="tram rail_urban rail rail_electric rail_fast ship container cable_car subway aircraft wheelchair scooter drone" speed="11.18" length="8.19" shape="255.18,467.59 256.56,469.58 257.82,470.73 259.07,471.88 260.43,473.89"/>
        <lane id=":4205565523_0_1" index="1" disallow="tram rail_urban rail rail_electric rail_fast ship container cable_car subway aircraft wheelchair scooter drone" speed="11.18" length="8.19" shape="252.38,469.14 253.76,471.12 255.01,472.26 256.26,473.41 257.61,475.40"/>
        <lane id=":4205565523_0_2" index="2" disallow="tram rail_urban rail rail_electric rail_fast ship container cable_car subway aircraft wheelchair scooter drone" speed="11.18" length="8.19" shape="249.58,470.69 250.95,472.65 252.20,473.79 253.44,474.93 254.79,476.91"/>
        <lane id=":4205565523_0_3" index="3" disallow="tram rail_urban rail rail_electric rail_fast ship container cable_car subway aircraft wheelchair scooter drone" speed="11.18" length="8.19" shape="249.58,470.69 250.51,472.89 250.79,474.54 251.06,476.20 251.97,478.42"/>
    </edge>
    <edge id=":4205565533_0" function="internal">
        <lane id=":4205565533_0_0" index="0" disallow="tram rail_urban rail rail_electric rail_fast ship container cable_car subway aircraft wheelchair scooter drone" speed="11.18" length="8.19" shape="330.77,607.65 332.08,609.61 333.31,610.74 334.55,611.85 335.92,613.79"/>
        <lane id=":4205565533_0_1" index="1" disallow="tram rail_urban rail rail_electric rail_fast ship container cable_car subway aircraft wheelchair scooter drone" speed="11.18" length="8.19" shape="327.93,609.13 329.26,611.12 330.49,612.26 331.74,613.39 333.12,615.35"/>
        <lane id=":4205565533_0_2" index="2" disallow="tram rail_urban rail rail_electric rail_fast ship container cable_car subway aircraft wheelchair scooter drone" speed="11.18" length="8.19" shape="325.10,610.62 326.44,612.63 327.68,613.79 328.94,614.93 330.33,616.91"/>
        <lane id=":4205565533_0_3" index="3" disallow="tram rail_urban rail rail_electric rail_fast ship container cable_car subway aircraft wheelchair scooter drone" speed="11.18" length="8.19" shape="325.10,610.62 326.00,612.88 326.28,614.57 326.58,616.25 327.54,618.48"/>
    </edge>
    <edge id=":4205565536_0" function="internal">
        <lane id=":4205565536_0_0" index="0" disallow="tram rail_urban rail rail_electric rail_fast ship container cable_car subway aircraft wheelchair scooter drone" speed="3.65" length="4.67" shape="343.24,666.00 341.81,665.87 341.07,665.35 341.05,664.46 341.72,663.19"/>
    </edge>
    <edge id=":42427371_0" function="internal">
        <lane id=":42427371_0_0" index="0" disallow="tram rail_urban rail rail_electric rail_fast ship container cable_car subway aircraft wheelchair scooter drone" speed="6.50" length="9.03" shape="725.33,180.30 726.80,182.30 728.55,183.34 730.59,183.44 732.91,182.58"/>
    </edge>
    <edge id=":42427371_1" function="internal">
        <lane id=":42427371_1_0" index="0" disallow="tram rail_urban rail rail_electric rail_fast ship container cable_car subway aircraft wheelchair scooter drone" speed="11.18" length="11.22" shape="725.33,180.30 730.64,190.18"/>
        <lane id=":42427371_1_1" index="1" disallow="tram rail_urban rail rail_electric rail_fast ship container cable_car subway aircraft wheelchair scooter drone" speed="11.18" length="11.22" shape="722.51,181.82 727.82,191.70"/>
        <lane id=":42427371_1_2" index="2" disallow="tram rail_urban rail rail_electric rail_fast ship container cable_car subway aircraft wheelchair scooter drone" speed="11.18" length="11.22" shape="719.69,183.33 725.00,193.21"/>
        <lane id=":42427371_1_3" index="3" disallow="tram rail_urban rail rail_electric rail_fast ship container cable_car subway aircraft wheelchair scooter drone" speed="11.18" length="11.22" shape="716.87,184.84 722.19,194.73"/>
    </edge>
    <edge id=":42427371_5" function="internal">
        <lane id=":42427371_5_0" index="0" disallow="tram rail_urban rail rail_electric rail_fast ship container cable_car subway aircraft wheelchair scooter drone" speed="11.18" length="20.81" shape="714.60,192.46 732.91,182.58"/>
    </edge>
    <edge id=":42427371_6" function="internal">
        <lane id=":42427371_6_0" index="0" disallow="tram rail_urban rail rail_electric rail_fast ship container cable_car subway aircraft wheelchair scooter drone" speed="7.32" length="11.73" shape="714.60,192.46 718.16,190.94 721.07,190.56 723.36,191.32 725.00,193.21"/>
        <lane id=":42427371_6_1" index="1" disallow="tram rail_urban rail rail_electric rail_fast ship container cable_car subway aircraft wheelchair scooter drone" speed="6.51" length="9.03" shape="714.60,192.46 716.92,191.61 718.96,191.70 720.72,192.74 722.19,194.73"/>
    </edge>
    <edge id=":42427374_0" function="internal">
        <lane id=":42427374_0_0" index="0" disallow="tram rail_urban rail rail_electric rail_fast ship container cable_car subway aircraft wheelchair scooter drone" speed="11.18" length="11.57" shape="481.42,325.75 480.03,322.64 479.42,320.35 478.79,318.08 477.37,314.99"/>
        <lane id=":42427374_0_1" index="1" disallow="tram rail_urban rail rail_electric rail_fast ship container cable_car subway aircraft wheelchair scooter drone" speed="11.18" length="11.57" shape="484.24,324.23 482.84,321.11 482.23,318.82 481.60,316.54 480.17,313.44"/>
        <lane id=":42427374_0_2" index="2" disallow="tram rail_urban rail rail_electric rail_fast ship container cable_car subway aircraft wheelchair scooter drone" speed="11.18" length="11.57" shape="487.05,322.72 485.65,319.59 485.04,317.29 484.41,315.00 482.97,311.89"/>
    </edge>
    <edge id=":42427374_3" function="internal">
        <lane id=":42427374_3_0" index="0" disallow="tram rail_urban rail rail_electric rail_fast ship container cable_car subway aircraft wheelchair scooter drone" speed="6.75" length="9.35" shape="489.87,321.20 488.88,318.67 488.82,316.46 489.67,314.58 491.45,313.03"/>
    </edge>
    <edge id=":42427374_4" function="internal">
        <lane id=":42427374_4_0" index="0" disallow="tram rail_urban rail rail_electric rail_fast ship container cable_car subway aircraft wheelchair scooter drone" speed="7.15" length="10.58" shape="474.19,323.86 476.64,321.88 477.98,319.74 478.22,317.44 477.37,314.99"/>
    </edge>
    <edge id=":42427374_5" function="internal">
        <lane id=":42427374_5_0" index="0" disallow="tram rail_urban rail rail_electric rail_fast ship container cable_car subway aircraft wheelchair scooter drone" speed="11.18" length="20.37" shape="474.19,323.86 491.45,313.03"/>
    </edge>
    <edge id=":42427381_0" function="internal">
        <lane id=":42427381_0_0" index="0" disallow="tram rail_urban rail rail_electric rail_fast ship container cable_car subway aircraft wheelchair scooter drone" speed="6.68" length="9.21" shape="241.12,441.87 242.60,443.95 244.37,445.11 246.44,445.34 248.80,444.65"/>
    </edge>
    <edge id=":42427381_1" function="internal">
        <lane id=":42427381_1_0" index="0" disallow="tram rail_urban rail rail_electric rail_fast ship container cable_car subway aircraft wheelchair scooter drone" speed="11.18" length="11.31" shape="241.12,441.87 246.44,451.79"/>
        <lane id=":42427381_1_1" index="1" disallow="tram rail_urban rail rail_electric rail_fast ship container cable_car subway aircraft wheelchair scooter drone" speed="11.18" length="11.31" shape="238.29,443.36 243.63,453.33"/>
        <lane id=":42427381_1_2" index="2" disallow="tram rail_urban rail rail_electric rail_fast ship container cable_car subway aircraft wheelchair scooter drone" speed="11.18" length="11.31" shape="235.45,444.85 240.83,454.87"/>
    </edge>
    <edge id=":42427381_4" function="internal">
        <lane id=":42427381_4_0" index="0" disallow="tram rail_urban rail rail_electric rail_fast ship container cable_car subway aircraft wheelchair scooter drone" speed="11.18" length="17.38" shape="233.06,452.04 248.80,444.65"/>
    </edge>
    <edge id=":42427381_5" function="internal">
        <lane id=":42427381_5_0" index="0" disallow="tram rail_urban rail rail_electric rail_fast ship container cable_car subway aircraft wheelchair scooter drone" speed="7.51" length="11.87" shape="233.06,452.04 236.66,450.72 239.61,450.49 241.94,451.36 243.63,453.33"/>
        <lane id=":42427381_5_1" index="1" disallow="tram rail_urban rail rail_electric rail_fast ship container cable_car subway aircraft wheelchair scooter drone" speed="6.72" length="9.31" shape="233.06,452.04 235.40,451.33 237.47,451.57 239.28,452.75 240.83,454.87"/>
    </edge>
    <edge id=":42427423_0" function="internal">
        <lane id=":42427423_0_0" index="0" disallow="tram rail_urban rail rail_electric rail_fast ship container cable_car subway aircraft wheelchair scooter drone" speed="6.51" length="9.03" shape="878.22,463.81 879.69,465.81 881.45,466.85 883.49,466.95 885.81,466.11"/>
    </edge>
    <edge id=":42427423_1" function="internal">
        <lane id=":42427423_1_0" index="0" disallow="tram rail_urban rail rail_electric rail_fast ship container cable_car subway aircraft wheelchair scooter drone" speed="11.18" length="11.30" shape="878.22,463.81 883.53,473.88"/>
        <lane id=":42427423_1_1" index="1" disallow="tram rail_urban rail rail_electric rail_fast ship container cable_car subway aircraft wheelchair scooter drone" speed="11.18" length="11.30" shape="875.40,465.33 880.69,475.35"/>
        <lane id=":42427423_1_2" index="2" disallow="tram rail_urban rail rail_electric rail_fast ship container cable_car subway aircraft wheelchair scooter drone" speed="11.18" length="11.30" shape="872.59,466.85 877.84,476.81"/>
        <lane id=":42427423_1_3" index="3" disallow="tram rail_urban rail rail_electric rail_fast ship container cable_car subway aircraft wheelchair scooter drone" speed="11.18" length="11.30" shape="869.77,468.37 875.00,478.28"/>
    </edge>
    <edge id=":42427423_5" function="internal">
        <lane id=":42427423_5_0" index="0" disallow="tram rail_urban rail rail_electric rail_fast ship container cable_car subway aircraft wheelchair scooter drone" speed="11.18" length="20.80" shape="867.48,475.95 885.81,466.11"/>
    </edge>
    <edge id=":42427423_6" function="internal">
        <lane id=":42427423_6_0" index="0" disallow="tram rail_urban rail rail_electric rail_fast ship container cable_car subway aircraft wheelchair scooter drone" speed="7.29" length="11.74" shape="867.48,475.95 871.04,474.44 873.95,474.08 876.22,474.87 877.84,476.81"/>
        <lane id=":42427423_6_1" index="1" disallow="tram rail_urban rail rail_electric rail_fast ship container cable_car subway aircraft wheelchair scooter drone" speed="6.46" length="9.02" shape="867.48,475.95 869.80,475.10 871.83,475.20 873.56,476.26 875.00,478.28"/>
    </edge>
    <edge id=":42427426_0" function="internal">
        <lane id=":42427426_0_0" index="0" disallow="tram rail_urban rail rail_electric rail_fast ship container cable_car subway aircraft wheelchair scooter drone" speed="11.18" length="11.38" shape="632.27,609.11 630.90,606.05 630.30,603.79 629.71,601.54 628.33,598.47"/>
        <lane id=":42427426_0_1" index="1" disallow="tram rail_urban rail rail_electric rail_fast ship container cable_car subway aircraft wheelchair scooter drone" speed="11.18" length="11.38" shape="635.09,607.59 633.71,604.52 633.11,602.27 632.52,600.01 631.15,596.95"/>
        <lane id=":42427426_0_2" index="2" disallow="tram rail_urban rail rail_electric rail_fast ship container cable_car subway aircraft wheelchair scooter drone" speed="11.18" length="11.38" shape="637.90,606.06 636.52,603.00 635.93,600.75 635.34,598.49 633.97,595.43"/>
        <lane id=":42427426_0_3" index="3" disallow="tram rail_urban rail rail_electric rail_fast ship container cable_car subway aircraft wheelchair scooter drone" speed="11.18" length="11.38" shape="640.71,604.53 639.34,601.47 638.74,599.22 638.15,596.97 636.78,593.91"/>
    </edge>
    <edge id=":42427426_4" function="internal">
        <lane id=":42427426_4_0" index="0" disallow="tram rail_urban rail rail_electric rail_fast ship container cable_car subway aircraft wheelchair scooter drone" speed="6.50" length="9.03" shape="643.53,603.01 642.66,600.69 642.75,598.65 643.80,596.89 645.79,595.42"/>
    </edge>
    <edge id=":42427426_5" function="internal">
        <lane id=":42427426_5_0" index="0" disallow="tram rail_urban rail rail_electric rail_fast ship container cable_car subway aircraft wheelchair scooter drone" speed="6.92" length="10.35" shape="624.66,606.81 627.26,605.01 628.74,603.02 629.10,600.84 628.33,598.47"/>
        <lane id=":42427426_5_1" index="1" disallow="tram rail_urban rail rail_electric rail_fast ship container cable_car subway aircraft wheelchair scooter drone" speed="7.72" length="13.13" shape="624.66,606.81 628.50,604.34 630.86,601.88 631.74,599.41 631.15,596.95"/>
    </edge>
    <edge id=":42427426_7" function="internal">
        <lane id=":42427426_7_0" index="0" disallow="tram rail_urban rail rail_electric rail_fast ship container cable_car subway aircraft wheelchair scooter drone" speed="11.18" length="24.00" shape="624.66,606.81 645.79,595.42"/>
    </edge>
    <edge id=":42428192_0" function="internal">
        <lane id=":42428192_0_0" index="0" disallow="tram rail_urban rail rail_electric rail_fast ship container cable_car subway aircraft wheelchair scooter drone" speed="11.18" length="3.00" width="10.00" shape="1115.23,62.68 1112.60,64.12"/>
    </edge>
    <edge id=":42429659_0" function="internal">
        <lane id=":42429659_0_0" index="0" disallow="tram rail_urban rail rail_electric rail_fast ship container cable_car subway aircraft wheelchair scooter drone" speed="6.51" length="9.03" shape="650.75,51.83 652.21,53.82 653.97,54.87 656.01,54.96 658.33,54.11"/>
    </edge>
    <edge id=":42429659_1" function="internal">
        <lane id=":42429659_1_0" index="0" disallow="tram rail_urban rail rail_electric rail_fast ship container cable_car subway aircraft wheelchair scooter drone" speed="11.18" length="11.20" shape="650.75,51.83 656.06,61.69"/>
    </edge>
    <edge id=":42429659_2" function="internal">
        <lane id=":42429659_2_0" index="0" disallow="tram rail_urban rail rail_electric rail_fast ship container cable_car subway aircraft wheelchair scooter drone" speed="11.18" length="11.20" shape="648.47,59.42 658.33,54.11"/>
    </edge>
    <edge id=":42429659_3" function="internal">
        <lane id=":42429659_3_0" index="0" disallow="tram rail_urban rail rail_electric rail_fast ship container cable_car subway aircraft wheelchair scooter drone" speed="6.51" length="9.04" shape="648.47,59.42 650.79,58.56 652.83,58.66 654.59,59.70 656.06,61.69"/>
    </edge>
    <edge id=":42429661_0" function="internal">
        <lane id=":42429661_0_0" index="0" disallow="tram rail_urban rail rail_electric rail_fast ship container cable_car subway aircraft wheelchair scooter drone" speed="11.18" length="11.39" shape="410.28,194.05 408.87,190.98 408.26,188.72 407.67,186.46 406.29,183.38"/>
        <lane id=":42429661_0_1" index="1" disallow="tram rail_urban rail rail_electric rail_fast ship container cable_car subway aircraft wheelchair scooter drone" speed="11.18" length="11.39" shape="413.08,192.50 411.68,189.45 411.08,187.19 410.48,184.94 409.11,181.86"/>
        <lane id=":42429661_0_2" index="2" disallow="tram rail_urban rail rail_electric rail_fast ship container cable_car subway aircraft wheelchair scooter drone" speed="11.18" length="11.39" shape="415.88,190.96 414.49,187.91 413.89,185.66 413.29,183.41 411.93,180.35"/>
    </edge>
    <edge id=":42429661_3" function="internal">
        <lane id=":42429661_3_0" index="0" disallow="tram rail_urban rail rail_electric rail_fast ship container cable_car subway aircraft wheelchair scooter drone" speed="6.48" length="9.00" shape="418.69,189.41 417.81,187.10 417.89,185.07 418.93,183.32 420.91,181.86"/>
    </edge>
    <edge id=":42429661_4" function="internal">
        <lane id=":42429661_4_0" index="0" disallow="tram rail_urban rail rail_electric rail_fast ship container cable_car subway aircraft wheelchair scooter drone" speed="6.93" length="10.34" shape="402.64,191.73 405.23,189.92 406.70,187.93 407.06,185.75 406.29,183.38"/>
    </edge>
    <edge id=":42429661_5" function="internal">
        <lane id=":42429661_5_0" index="0" disallow="tram rail_urban rail rail_electric rail_fast ship container cable_car subway aircraft wheelchair scooter drone" speed="11.18" length="20.77" shape="402.64,191.73 420.91,181.86"/>
    </edge>
    <edge id=":42429662_0" function="internal">
        <lane id=":42429662_0_0" index="0" disallow="tram rail_urban rail rail_electric rail_fast ship container cable_car subway aircraft wheelchair scooter drone" speed="6.50" length="9.03" shape="171.18,311.04 172.65,313.03 174.41,314.07 176.45,314.16 178.77,313.29"/>
    </edge>
    <edge id=":42429662_1" function="internal">
        <lane id=":42429662_1_0" index="0" disallow="tram rail_urban rail rail_electric rail_fast ship container cable_car subway aircraft wheelchair scooter drone" speed="11.18" length="11.37" shape="171.18,311.04 176.54,321.10"/>
        <lane id=":42429662_1_1" index="1" disallow="tram rail_urban rail rail_electric rail_fast ship container cable_car subway aircraft wheelchair scooter drone" speed="11.18" length="11.37" shape="168.36,312.56 173.71,322.59"/>
        <lane id=":42429662_1_2" index="2" disallow="tram rail_urban rail rail_electric rail_fast ship container cable_car subway aircraft wheelchair scooter drone" speed="11.18" length="11.37" shape="165.55,314.08 170.88,324.08"/>
    </edge>
    <edge id=":42429662_4" function="internal">
        <lane id=":42429662_4_0" index="0" disallow="tram rail_urban rail rail_electric rail_fast ship container cable_car subway aircraft wheelchair scooter drone" speed="11.18" length="17.66" shape="163.33,321.87 178.77,313.29"/>
    </edge>
    <edge id=":42429662_5" function="internal">
        <lane id=":42429662_5_0" index="0" disallow="tram rail_urban rail rail_electric rail_fast ship container cable_car subway aircraft wheelchair scooter drone" speed="7.26" length="11.78" shape="163.33,321.87 166.87,320.27 169.78,319.86 172.06,320.64 173.71,322.59"/>
        <lane id=":42429662_5_1" index="1" disallow="tram rail_urban rail rail_electric rail_fast ship container cable_car subway aircraft wheelchair scooter drone" speed="6.44" length="9.03" shape="163.33,321.87 165.65,320.96 167.68,321.02 169.42,322.07 170.88,324.08"/>
    </edge>
    <edge id=":42430263_0" function="internal">
        <lane id=":42430263_0_0" index="0" disallow="tram rail_urban rail rail_electric rail_fast ship container cable_car subway aircraft wheelchair scooter drone" speed="6.93" length="10.37" shape="699.11,116.12 696.51,117.91 695.02,119.90 694.66,122.09 695.43,124.47"/>
        <lane id=":42430263_0_1" index="1" disallow="tram rail_urban rail rail_electric rail_fast ship container cable_car subway aircraft wheelchair scooter drone" speed="7.72" length="13.14" shape="699.11,116.12 695.27,118.57 692.91,121.04 692.02,123.51 692.61,125.98"/>
    </edge>
    <edge id=":42430263_2" function="internal">
        <lane id=":42430263_2_0" index="0" disallow="tram rail_urban rail rail_electric rail_fast ship container cable_car subway aircraft wheelchair scooter drone" speed="11.18" length="23.99" shape="699.11,116.12 677.99,127.49"/>
    </edge>
    <edge id=":42430263_3" function="internal">
        <lane id=":42430263_3_0" index="0" disallow="tram rail_urban rail rail_electric rail_fast ship container cable_car subway aircraft wheelchair scooter drone" speed="11.18" length="11.38" shape="691.50,113.80 692.88,116.87 693.47,119.13 694.06,121.39 695.43,124.47"/>
        <lane id=":42430263_3_1" index="1" disallow="tram rail_urban rail rail_electric rail_fast ship container cable_car subway aircraft wheelchair scooter drone" speed="11.18" length="11.38" shape="688.69,115.33 690.06,118.39 690.66,120.65 691.24,122.91 692.61,125.98"/>
        <lane id=":42430263_3_2" index="2" disallow="tram rail_urban rail rail_electric rail_fast ship container cable_car subway aircraft wheelchair scooter drone" speed="11.18" length="11.38" shape="685.87,116.85 687.25,119.91 687.84,122.17 688.43,124.42 689.79,127.49"/>
        <lane id=":42430263_3_3" index="3" disallow="tram rail_urban rail rail_electric rail_fast ship container cable_car subway aircraft wheelchair scooter drone" speed="11.18" length="11.38" shape="683.06,118.37 684.43,121.43 685.02,123.68 685.61,125.94 686.97,129.00"/>
    </edge>
    <edge id=":42430263_7" function="internal">