<?xml version="1.0" encoding="UTF-8"?>

<!-- generated on 2025-04-15 12:10:45 by Eclipse SUMO sumo Version 1.22.0
-->

<sumoConfiguration xmlns:xsi="http://www.w3.org/2001/XMLSchema-instance" xsi:noNamespaceSchemaLocation="http://sumo.dlr.de/xsd/sumoConfiguration.xsd">

    <input>
        <net-file value="newyork33.net.xml"/>
        <route-files value="newyork33.rou.xml"/>
    </input>
  <time>
    <begin value="0" />
    <end value="10000" />
  </time>


</sumoConfiguration>
