<?xml version="1.0" encoding="UTF-8"?>

<!-- generated on 2025-04-30 21:36:26 by Eclipse SUMO duarouter Version v1_21_0+1945-f15ee0a3369
<duarouterConfiguration xmlns:xsi="http://www.w3.org/2001/XMLSchema-instance" xsi:noNamespaceSchemaLocation="http://sumo.dlr.de/xsd/duarouterConfiguration.xsd">

    <input>
        <net-file value="newyork33.net.xml"/>
        <route-files value="osm.passenger.trips.xml"/>
    </input>

    <output>
        <output-file value="osm.rou.xml"/>
    </output>

</duarouterConfiguration>
-->

<routes xmlns:xsi="http://www.w3.org/2001/XMLSchema-instance" xsi:noNamespaceSchemaLocation="http://sumo.dlr.de/xsd/routes_file.xsd">
    <vType id="veh_passenger" vClass="passenger"/>
    <vehicle id="veh1" type="veh_passenger" depart="2.74" departLane="best">
        <route edges="852992107#0 34080062#0 1266830890#3 1266830891#0 196117090#0 196117090#2 1266830892 -1088320657#1"/>
    </vehicle>
    <vehicle id="veh2" type="veh_passenger" depart="5.48" departLane="best">
        <route edges="1266830890#3 1266830891#0 156994961#0 813970416#4 852992107#0 852992111#0 5672450#3 420598349#0 465098285#0"/>
    </vehicle>
    <vehicle id="veh3" type="veh_passenger" depart="8.22" departLane="best" departSpeed="max">
        <route edges="-384178812 420598407#0 5670836#0 954659191#0 813970416#0 813970416#4 852992107#0 852992111#0 852992111#3 852992100#0 194923795#3 194923795#5"/>
    </vehicle>
    <vehicle id="veh5" type="veh_passenger" depart="13.69" departLane="best">
        <route edges="1266830890#3 1266830891#0 156994961#0 813970416#4 852992107#0 852992111#0 852992111#3 852992100#0 852992102#0 852992102#3 852992108 496993765"/>
    </vehicle>
    <vehicle id="veh6" type="veh_passenger" depart="16.43" departLane="best" departSpeed="max">
        <route edges="196117074 1080982439 194923811 983849667 420598345 465098276 420598337 420598356 465098271 420598335#0 420598349#0 465098285#0 420598333#0 156994969#0 813970415#0 813970417#0 196117090#2 1266830892"/>
    </vehicle>
    <vehicle id="veh7" type="veh_passenger" depart="19.17" departLane="best">
        <route edges="983849667 420598345 465098276 420598337 420598356 465098271 420598335#0"/>
    </vehicle>
    <vehicle id="veh8" type="veh_passenger" depart="21.91" departLane="best" departSpeed="max">
        <route edges="-5671620 -1088320655#1 -465101198#1 -1088320657#1 -420598407#2 420598407#0 5670836#0 954659191#0 813970416#0 813970416#4 852992107#0 852992111#0 852992111#3 852992100#0 194923795#3 1266830888#1 1266830889"/>
    </vehicle>
    <vehicle id="veh9" type="veh_passenger" depart="24.65" departLane="best">
        <route edges="813970417#0 846122853#0 5670876#0"/>
    </vehicle>
    <vehicle id="veh10" type="veh_passenger" depart="27.39" departLane="best" departSpeed="max">
        <route edges="788602261#0 34080508#0 68668541#0 541330444#0 156994961#0 813970416#4"/>
    </vehicle>
    <vehicle id="veh11" type="veh_passenger" depart="30.13" departLane="best">
        <route edges="465098276 420598337 420598356 465098271 420598335#0 420598349#0 465098285#0 420598333#0 156994969#0 813970415#0 813970417#0 196117090#2 1266830892 630828586#0 630828586#1 1266830893#0 489019752#0 968394450#0"/>
    </vehicle>
    <vehicle id="veh12" type="veh_passenger" depart="32.87" departLane="best">
        <route edges="34080508#0 68668541#0 541330444#0 156994961#0 813970416#4 852992107#0 852992111#0 852992111#3 852992100#0 852992102#0 852992102#3 852992108 496993763"/>
    </vehicle>
    <vehicle id="veh13" type="veh_passenger" depart="35.60" departLane="best">
        <route edges="813970416#0 813970416#4 852992107#0 34080062#0 1266830890#3 1266830891#0 196117090#0 196117090#2 1266830892 1088320656#0 1088320655#0 5671620"/>
    </vehicle>
    <vehicle id="veh14" type="veh_passenger" depart="38.34" departLane="best" departSpeed="max">
        <route edges="5672211#0 803024464#0 541330444#0 196117090#0 196117090#2 1266830892 630828586#0 630828586#1 483704512#1 1018454469#0"/>
    </vehicle>
    <vehicle id="veh15" type="veh_passenger" depart="41.08" departLane="best">
        <route edges="1266830890#3 1266830891#0 196117090#0 196117090#2 1266830892 -1088320657#1 -420598407#2 384178812"/>
    </vehicle>
    <vehicle id="veh16" type="veh_passenger" depart="43.82" departLane="best" departSpeed="max">
        <route edges="-5671620 -1088320655#1 -465101198#1 1088320656#0 1088320655#0 34080508#0 68668541#0 541330444#0 196117090#0 196117090#2"/>
    </vehicle>
    <vehicle id="veh17" type="veh_passenger" depart="46.56" departLane="best" departSpeed="max">
        <route edges="-5671620 -1088320655#1 -465101198#1 -1088320657#1 -420598407#2 384178812"/>
    </vehicle>
    <vehicle id="veh21" type="veh_passenger" depart="57.51" departLane="best" departSpeed="max">
        <route edges="1266830888#0 1266830888#1 1266830889 1266830890#0 1266830890#3 1266830891#0 156994961#0 813970416#4"/>
    </vehicle>
    <vehicle id="veh22" type="veh_passenger" depart="60.25" departLane="best">
        <route edges="1088320658#0 1088320656#0 1088320655#0 34080508#0 68668541#0 541330444#0 156994961#0 813970416#4 852992107#0 852992111#0 852992111#3 852992100#0 852992102#0 481403099#1 420598356"/>
    </vehicle>
    <vehicle id="veh23" type="veh_passenger" depart="62.99" departLane="best">
        <route edges="986615542#0 1021124545#0 420598327#0 1088320658#0 1088320656#0 1088320655#0 5671620"/>
    </vehicle>
    <vehicle id="veh24" type="veh_passenger" depart="65.73" departLane="best">
        <route edges="465098290#0 420598339#0 420598407#0 5670836#0 954659191#0 813970417#0 196117090#2 1266830892 630828586#0"/>
    </vehicle>
    <vehicle id="veh25" type="veh_passenger" depart="68.47" departLane="best">
        <route edges="1266830890#3 1266830891#0 196117090#0 196117090#2 1266830892 -1088320657#1 -420598407#2"/>
    </vehicle>
    <vehicle id="veh26" type="veh_passenger" depart="71.21" departLane="best" departSpeed="max">
        <route edges="194923795#0 465098271 420598335#0 420598349#0 465098285#0 420598333#0 156994969#0 465098290#0 420598339#0 384178812"/>
    </vehicle>
    <vehicle id="veh27" type="veh_passenger" depart="73.95" departLane="best">
        <route edges="1266830890#0 1266830890#3 1266830891#0 196117090#0 196117090#2 1266830892 630828586#0 630828586#1 1266830893#0 489019752#0 968394450#0"/>
    </vehicle>
    <vehicle id="veh30" type="veh_passenger" depart="82.16" departLane="best">
        <route edges="852992111#0 852992111#3 852992100#0 852992102#0 481403099#1 458106346"/>
    </vehicle>
    <vehicle id="veh32" type="veh_passenger" depart="87.64" departLane="best" departSpeed="max">
        <route edges="465098295 194923811 983849667 420598345 465098276 420598337 420598356 465098271 420598335#0 420598349#0 465098285#0 420598333#0 458106344#0 156994977#0 963575583#0"/>
    </vehicle>
    <vehicle id="veh33" type="veh_passenger" depart="90.38" departLane="best" departSpeed="max">
        <route edges="348477348 465098276 420598337 420598356 465098271 420598335#0 420598349#0 110489637#0 34080062#0 1266830890#3 1266830891#0 196117090#0"/>
    </vehicle>
    <vehicle id="veh34" type="veh_passenger" depart="93.12" departLane="best">
        <route edges="986615542#0 1021124545#0 420598327#0 5670836#0 954659191#0 813970416#0 813970416#4 852992107#0 852992111#0 5672450#3 420598349#0 465098285#0"/>
    </vehicle>
    <vehicle id="veh35" type="veh_passenger" depart="95.86" departLane="best" departSpeed="max">
        <route edges="-5671620 -1088320655#1 -465101198#1 1088320656#0 1088320655#0 34080508#0 68668541#0 541330444#0 196117090#0 196117090#2 1266830892 630828586#0 630828586#1 483704512#1 1018454469#0"/>
    </vehicle>
    <vehicle id="veh36" type="veh_passenger" depart="98.60" departLane="best" departSpeed="max">
        <route edges="788602261#0 -1088320655#1 -465101198#1 -1088320657#1 -420598407#2 420598366"/>
    </vehicle>
    <vehicle id="veh37" type="veh_passenger" depart="101.34" departLane="best" departSpeed="max">
        <route edges="-458106348 -1080982439 -196117074 196117074 1080982439 194923811 983849667 420598345 465098276 420598337 420598356"/>
    </vehicle>
    <vehicle id="veh38" type="veh_passenger" depart="104.07" departLane="best">
        <route edges="986615542#0 396444294#2 630828586#1 1266830893#0 489019752#0"/>
    </vehicle>
    <vehicle id="veh40" type="veh_passenger" depart="109.55" departLane="best">
        <route edges="-1088320655#1 -465101198#1 -1088320657#1 -420598407#2 420598407#0 5670836#0 954659191#0 813970416#0"/>
    </vehicle>
    <vehicle id="veh43" type="veh_passenger" depart="117.77" departLane="best">
        <route edges="1018454469#0 986615542#0 1021124545#0 420598327#0 -420598407#2 420598366"/>
    </vehicle>
    <vehicle id="veh44" type="veh_passenger" depart="120.51" departLane="best">
        <route edges="420598335#0 420598349#0 465098285#0 420598333#0 156994969#0 813970415#0 813970417#0 196117090#2 1266830892 630828586#0 630828586#1 1266830893#0 489019752#0 968394450#0"/>
    </vehicle>
    <vehicle id="veh46" type="veh_passenger" depart="125.98" departLane="best">
        <route edges="852992111#0 5672450#3 420598349#0 465098285#0 420598333#0 458106344#0 156994977#0 963575583#0"/>
    </vehicle>
    <vehicle id="veh48" type="veh_passenger" depart="131.46" departLane="best" departSpeed="max">
        <route edges="465098295 194923811 983849667 420598345 465098276 420598337 420598356 465098271 420598335#0 420598349#0 465098285#0 420598333#0 156994969#0 813970415#0 813970417#0 196117090#2 1266830892"/>
    </vehicle>
    <vehicle id="veh49" type="veh_passenger" depart="134.20" departLane="best">
        <route edges="68668541#0 541330444#0 156994961#0 813970416#4 852992107#0 852992111#0 852992111#3 852992100#0 852992102#0 852992102#3 852992108 496993763"/>
    </vehicle>
    <vehicle id="veh50" type="veh_passenger" depart="136.94" departLane="best" departSpeed="max">
        <route edges="788602261#0 34080508#0 68668541#0 541330444#0 196117090#0 196117090#2 1266830892 630828586#0 630828586#1 1266830893#0 489019752#0"/>
    </vehicle>
    <vehicle id="veh51" type="veh_passenger" depart="139.68" departLane="best">
        <route edges="1080982439 194923811 983849667 420598345 465098276 420598337 420598356 465098271 420598335#0 420598349#0 465098285#0 420598333#0"/>
    </vehicle>
    <vehicle id="veh52" type="veh_passenger" depart="142.42" departLane="best" departSpeed="max">
        <route edges="-384178812 420598407#0 5670836#0 954659191#0 813970417#0 196117090#2 1266830892 630828586#0 630828586#1 1266830893#0 489019752#0 968394450#0"/>
    </vehicle>
    <vehicle id="veh54" type="veh_passenger" depart="147.90" departLane="best" departSpeed="max">
        <route edges="194923795#0 194923795#1 194923795#3 1266830888#1 1266830889 1266830890#0 1266830890#3 1266830891#0 196117090#0 196117090#2 1266830892 630828586#0 630828586#1 483704512#1 1018454469#0 986615542#0 1021124545#0"/>
    </vehicle>
    <vehicle id="veh57" type="veh_passenger" depart="156.11" departLane="best" departSpeed="max">
        <route edges="-458106348 -1080982439 -196117074 196117074 1080982439 194923811 983849667 420598345 465098276 420598337 420598356 194923795#1 852992102#0 852992102#3"/>
    </vehicle>
    <vehicle id="veh59" type="veh_passenger" depart="161.59" departLane="best">
        <route edges="420598339#0 420598407#0 5670836#0 954659191#0 813970416#0 813970416#4 852992107#0 852992111#0 852992111#3 852992100#0 852992102#0 852992102#3 852992108 496993763"/>
    </vehicle>
    <vehicle id="veh62" type="veh_passenger" depart="169.81" departLane="best">
        <route edges="465098276 420598337 420598356 465098271 420598335#0 420598349#0 465098285#0 420598333#0 156994969#0 813970415#0 813970416#0 813970416#4"/>
    </vehicle>
    <vehicle id="veh63" type="veh_passenger" depart="172.54" departLane="best">
        <route edges="1266830889 1266830890#0 1266830890#3 1266830891#0 196117090#0 196117090#2 1266830892 630828586#0 630828586#1 483704512#1 1018454469#0 986615542#0 1021124545#0 420598327#0"/>
    </vehicle>
    <vehicle id="veh64" type="veh_passenger" depart="175.28" departLane="best">
        <route edges="986615542#0 1021124545#0 420598327#0 1088320658#0 1088320656#0 1088320655#0 5671620"/>
    </vehicle>
    <vehicle id="veh65" type="veh_passenger" depart="178.02" departLane="best">
        <route edges="1018454469#0 986615542#0 1021124545#0 420598327#0 5670836#0 954659191#0 813970416#0 813970416#4 852992107#0 34080062#0 1266830890#3 1266830891#0 196117090#0"/>
    </vehicle>
    <vehicle id="veh66" type="veh_passenger" depart="180.76" departLane="best" departSpeed="max">
        <route edges="-458106348 -1080982439 -196117074 196117074 1080982439 194923811 983849667 420598345 465098276 420598337 420598356 465098271 420598335#0 420598349#0 465098285#0 420598333#0 156994969#0 813970415#0 813970417#0 196117090#2 1266830892 1088320656#0 1088320655#0 5671620"/>
    </vehicle>
    <vehicle id="veh67" type="veh_passenger" depart="183.50" departLane="best">
        <route edges="1266830890#3 1266830891#0 156994961#0 156994961#4 458106344#0 156994977#0 963575583#0"/>
    </vehicle>
    <vehicle id="veh68" type="veh_passenger" depart="186.24" departLane="best">
        <route edges="852992100#0 194923795#3 1266830888#1 1266830889 1266830890#0 1266830890#3 1266830891#0 196117090#0 196117090#2 1266830892 1088320656#0 1088320655#0"/>
    </vehicle>
    <vehicle id="veh69" type="veh_passenger" depart="188.98" departLane="best">
        <route edges="1266830891#0 196117090#0 196117090#2 1266830892 630828586#0 630828586#1 1266830893#0 630828585#0"/>
    </vehicle>
    <vehicle id="veh70" type="veh_passenger" depart="191.72" departLane="best">
        <route edges="954659191#0 813970416#0 813970416#4 852992107#0 852992111#0 852992111#3 852992100#0 852992102#0 852992102#3 852992108 496993765"/>
    </vehicle>
    <vehicle id="veh71" type="veh_passenger" depart="194.45" departLane="best" departSpeed="max">
        <route edges="788602261#0 34080508#0 68668541#0 541330444#0 156994961#0 813970416#4 852992107#0 852992111#0 852992111#3 852992100#0 852992102#0"/>
    </vehicle>
    <vehicle id="veh72" type="veh_passenger" depart="197.19" departLane="best" departSpeed="max">
        <route edges="-5671620 -1088320655#1 -465101198#1 -1088320657#1 -420598407#2 420598366"/>
    </vehicle>
    <vehicle id="veh74" type="veh_passenger" depart="202.67" departLane="best">
        <route edges="5672450#3 420598349#0 465098285#0 420598333#0 156994969#0 813970415#0 813970417#0 196117090#2 1266830892 630828586#0 630828586#1 1266830893#0 630828585#0"/>
    </vehicle>
    <vehicle id="veh76" type="veh_passenger" depart="208.15" departLane="best" departSpeed="max">
        <route edges="396444294#0 1021124545#0 420598327#0 5670836#0 954659191#0 813970416#0 813970416#4 852992107#0 852992111#0 852992111#3 852992100#0 852992102#0 481403099#1 420598356 465098271 420598335#0"/>
    </vehicle>
    <vehicle id="veh77" type="veh_passenger" depart="210.89" departLane="best">
        <route edges="852992100#0 194923795#3 1266830888#1 1266830889 1266830890#0 34080062#4"/>
    </vehicle>
    <vehicle id="veh78" type="veh_passenger" depart="213.63" departLane="best">
        <route edges="1266830889 5672450#1 852992111#3 852992100#0 852992102#0 481403099#1 458106346"/>
    </vehicle>
    <vehicle id="veh79" type="veh_passenger" depart="216.37" departLane="best">
        <route edges="1266830892 630828586#0 630828586#1 1266830893#0 489019752#0 968394450#0"/>
    </vehicle>
    <vehicle id="veh80" type="veh_passenger" depart="219.10" departLane="best">
        <route edges="465098285#0 420598333#0 156994969#0 813970415#0 813970417#0 196117090#2 1266830892 630828586#0 630828586#1 483704512#1 1018454469#0"/>
    </vehicle>
    <vehicle id="veh81" type="veh_passenger" depart="221.84" departLane="best">
        <route edges="986615542#0 1021124545#0 420598327#0 1088320658#0 1088320656#0 1088320655#0 34080508#0 68668541#0 68668541#4 889114521#0"/>
    </vehicle>
    <vehicle id="veh82" type="veh_passenger" depart="224.58" departLane="best">
        <route edges="813970417#0 196117090#2 1266830892 630828586#0 630828586#1 1266830893#0"/>
    </vehicle>
    <vehicle id="veh84" type="veh_passenger" depart="230.06" departLane="best" departSpeed="max">
        <route edges="348477348 465098276 420598337 420598356 465098271 420598335#0 420598349#0 465098285#0 420598333#0 156994969#0 813970415#0 813970417#0 196117090#2 1266830892 630828586#0 630828586#1 483704512#1 1018454469#0 986615542#0 1021124545#0"/>
    </vehicle>
    <vehicle id="veh87" type="veh_passenger" depart="238.28" departLane="best">
        <route edges="420598335#0 420598349#0 465098285#0 420598333#0 156994969#0 465098290#0 420598339#0 420598366"/>
    </vehicle>
    <vehicle id="veh88" type="veh_passenger" depart="241.01" departLane="best">
        <route edges="983849667 420598345 465098276 420598337 420598356 465098271 420598335#0 420598349#0 465098285#0 420598333#0 156994969#0 813970415#0 813970417#0 196117090#2 1266830892 630828586#0 630828586#1 483704512#1 1018454469#0 986615542#0"/>
    </vehicle>
    <vehicle id="veh90" type="veh_passenger" depart="246.49" departLane="best">
        <route edges="465098276 420598337 420598356 465098271 420598335#0 420598349#0 110489637#0 852992111#0 852992111#3 852992100#0"/>
    </vehicle>
    <vehicle id="veh91" type="veh_passenger" depart="249.23" departLane="best" departSpeed="max">
        <route edges="-458106348 -1080982439 -196117074 196117074 1080982439 194923811 983849667 420598345 496986855 496993765"/>
    </vehicle>
    <vehicle id="veh92" type="veh_passenger" depart="251.97" departLane="best">
        <route edges="420598349#0 465098285#0 420598333#0 156994969#0 465098290#0 420598339#0 420598407#0 5670836#0 954659191#0"/>
    </vehicle>
    <vehicle id="veh93" type="veh_passenger" depart="254.71" departLane="best">
        <route edges="1266830892 630828586#0 630828586#1 1266830893#0 489019752#0 968394450#0"/>
    </vehicle>
    <vehicle id="veh94" type="veh_passenger" depart="257.45" departLane="best" departSpeed="max">
        <route edges="-5671620 -1088320655#1 -465101198#1 -1088320657#1 -420598407#2 420598407#0 5670836#0 954659191#0 813970416#0 156994961#4 458106344#0 156994977#0"/>
    </vehicle>
    <vehicle id="veh95" type="veh_passenger" depart="260.19" departLane="best" departSpeed="max">
        <route edges="465098295 194923811 983849667 420598345 465098276 420598337 420598356 465098271 420598335#0 420598349#0 465098285#0 420598333#0 156994969#0 813970415#0 813970417#0 196117090#2 1266830892 630828586#0 630828586#1 1266830893#0 630828585#0"/>
    </vehicle>
    <vehicle id="veh96" type="veh_passenger" depart="262.92" departLane="best">
        <route edges="852992107#0 34080062#0 34080062#4"/>
    </vehicle>
    <vehicle id="veh97" type="veh_passenger" depart="265.66" departLane="best" departSpeed="max">
        <route edges="465098295 194923811 983849667 420598345 465098276 420598337 420598356 465098271 420598335#0 420598349#0 465098285#0 420598333#0 156994969#0 813970415#0 813970417#0 196117090#2 1266830892 1088320656#0 1088320655#0 5671620"/>
    </vehicle>
    <vehicle id="veh98" type="veh_passenger" depart="268.40" departLane="best">
        <route edges="986615542#0 1021124545#0 420598327#0 5670836#0 954659191#0 813970416#0 813970416#4 852992107#0 852992111#0 852992111#3 852992100#0 852992102#0 852992102#3 852992108 496993765"/>
    </vehicle>
    <vehicle id="veh100" type="veh_passenger" depart="273.88" departLane="best">
        <route edges="1266830889 5672450#1 5672450#3 420598349#0 465098285#0 420598333#0 156994969#0 813970415#0"/>
    </vehicle>
    <vehicle id="veh101" type="veh_passenger" depart="276.62" departLane="best">
        <route edges="1266830891#0 196117090#0 196117090#2 1266830892 -1088320657#1 -420598407#2 420598366"/>
    </vehicle>
    <vehicle id="veh102" type="veh_passenger" depart="279.36" departLane="best" departSpeed="max">
        <route edges="496993920 420598345 465098276 420598337 420598356 465098271 420598335#0 420598349#0 465098285#0 420598333#0 156994969#0 813970415#0 813970417#0 196117090#2 1266830892 630828586#0 396444294#4"/>
    </vehicle>
    <vehicle id="veh103" type="veh_passenger" depart="282.10" departLane="best" departSpeed="max">
        <route edges="194923795#0 194923795#1 852992102#0"/>
    </vehicle>
    <vehicle id="veh104" type="veh_passenger" depart="284.84" departLane="best">
        <route edges="-465101198#1 -1088320657#1 -420598407#2 420598407#0 5670836#0 954659191#0 813970416#0 813970416#4 852992107#0 852992111#0 852992111#3 852992100#0 852992102#0 481403099#1 458106346"/>
    </vehicle>
    <vehicle id="veh107" type="veh_passenger" depart="293.05" departLane="best">
        <route edges="813970416#0 813970416#4 852992107#0 34080062#0 1266830890#3 1266830891#0 196117090#0 846122853#0 68668541#0"/>
    </vehicle>
    <vehicle id="veh108" type="veh_passenger" depart="295.79" departLane="best" departSpeed="max">
        <route edges="465098295 194923811 983849667 420598345 465098276 420598337 420598356 465098271 420598335#0 420598349#0 465098285#0 420598333#0 156994969#0 813970415#0 813970417#0 196117090#2 1266830892 630828586#0 630828586#1 483704512#1 1018454469#0 986615542#0"/>
    </vehicle>
    <vehicle id="veh111" type="veh_passenger" depart="304.01" departLane="best">
        <route edges="1021124545#0 420598327#0 5670836#0 954659191#0 813970416#0 813970416#4 852992107#0 852992111#0 852992111#3 852992100#0 194923795#3 1266830888#1 1266830889 1266830890#0"/>
    </vehicle>
    <vehicle id="veh112" type="veh_passenger" depart="306.75" departLane="best" departSpeed="max">
        <route edges="-5671620 -1088320655#1 -465101198#1 -1088320657#1 -420598407#2 420598407#0 5670836#0 954659191#0 813970416#0 813970416#4 852992107#0 852992111#0 852992111#3 852992100#0 852992102#0 852992102#3 852992108 496993765"/>
    </vehicle>
    <vehicle id="veh114" type="veh_passenger" depart="312.22" departLane="best" departSpeed="max">
        <route edges="483704512#0 483704512#1 1018454469#0 986615542#0 1021124545#0 420598327#0 -420598407#2 384178812"/>
    </vehicle>
    <vehicle id="veh115" type="veh_passenger" depart="314.96" departLane="best">
        <route edges="420598345 465098276 420598337 420598356 465098271 420598335#0 420598349#0 465098285#0 420598333#0 458106344#0 156994977#0 963575583#0"/>
    </vehicle>
    <vehicle id="veh116" type="veh_passenger" depart="317.70" departLane="best">
        <route edges="954659191#0 813970416#0 813970416#4 852992107#0 852992111#0 852992111#3 852992100#0 194923795#3 1266830888#1"/>
    </vehicle>
    <vehicle id="veh117" type="veh_passenger" depart="320.44" departLane="best">
        <route edges="1080982439 194923811 983849667 420598345 465098276 420598337 420598356 465098271 420598335#0 420598349#0 465098285#0 420598333#0 156994969#0 813970415#0 813970416#0 813970416#4 852992107#0"/>
    </vehicle>
    <vehicle id="veh118" type="veh_passenger" depart="323.18" departLane="best" departSpeed="max">
        <route edges="483704512#0 483704512#1 1018454469#0 986615542#0 1021124545#0 420598327#0 1088320658#0 1088320656#0 1088320655#0 34080508#0"/>
    </vehicle>
    <vehicle id="veh119" type="veh_passenger" depart="325.92" departLane="best">
        <route edges="630828586#0 630828586#1 483704512#1 1018454469#0 986615542#0 1021124545#0 420598327#0 5670836#0 954659191#0 813970416#0 813970416#4 852992107#0 852992111#0 852992111#3 852992100#0 852992102#0 852992102#3 852992108 496993763"/>
    </vehicle>
    <vehicle id="veh120" type="veh_passenger" depart="328.66" departLane="best">
        <route edges="420598327#0 1088320658#0 1088320656#0 1088320655#0"/>
    </vehicle>
    <vehicle id="veh121" type="veh_passenger" depart="331.39" departLane="best">
        <route edges="-465101198#1 -1088320657#1 -420598407#2 420598407#0 5670836#0 954659191#0 813970416#0 156994961#4 458106344#0 156994977#0 963575583#0"/>
    </vehicle>
    <vehicle id="veh122" type="veh_passenger" depart="334.13" departLane="best">
        <route edges="813970416#0 813970416#4 852992107#0 852992111#0 852992111#3 852992100#0 852992102#0 852992102#3 852992108 496993765"/>
    </vehicle>
    <vehicle id="veh123" type="veh_passenger" depart="336.87" departLane="best">
        <route edges="1088320655#0 34080508#0 68668541#0 541330444#0 156994961#0 813970416#4 852992107#0 34080062#0 1266830890#3"/>
    </vehicle>
    <vehicle id="veh124" type="veh_passenger" depart="339.61" departLane="best" departSpeed="max">
        <route edges="194923795#0 465098271 420598335#0 420598349#0 465098285#0 420598333#0 458106344#0 156994977#0 963575583#0"/>
    </vehicle>
    <vehicle id="veh125" type="veh_passenger" depart="342.35" departLane="best" departSpeed="max">
        <route edges="788602261#0 34080508#0 68668541#0 541330444#0 156994961#0 156994961#4 458106344#0 156994977#0 963575583#0"/>
    </vehicle>
    <vehicle id="veh127" type="veh_passenger" depart="347.83" departLane="best" departSpeed="max">
        <route edges="788602261#0 34080508#0 68668541#0 541330444#0 156994961#0 156994961#4 458106344#0 156994977#0 963575583#0"/>
    </vehicle>
    <vehicle id="veh128" type="veh_passenger" depart="350.57" departLane="best" departSpeed="max">
        <route edges="396444294#0 1021124545#0 420598327#0 1088320658#0 1088320656#0 1088320655#0 5671620"/>
    </vehicle>
    <vehicle id="veh129" type="veh_passenger" depart="353.31" departLane="best">
        <route edges="1266830892 630828586#0 630828586#1 1266830893#0 489019752#0 968394450#0"/>
    </vehicle>
    <vehicle id="veh131" type="veh_passenger" depart="358.78" departLane="best" departSpeed="max">
        <route edges="788602261#0 34080508#0 68668541#0 541330444#0 156994961#0 156994961#4 458106344#0 156994977#0 963575583#0"/>
    </vehicle>
    <vehicle id="veh132" type="veh_passenger" depart="361.52" departLane="best" departSpeed="max">
        <route edges="-384178812 420598407#0 5670836#0 954659191#0 813970417#0"/>
    </vehicle>
    <vehicle id="veh133" type="veh_passenger" depart="364.26" departLane="best">
        <route edges="194923811 983849667 420598345 465098276 420598337 420598356 465098271 420598335#0 420598349#0 465098285#0 420598333#0 156994969#0 813970415#0 813970417#0 196117090#2 1266830892 630828586#0 630828586#1 1266830893#0 489019752#0 968394450#0"/>
    </vehicle>
    <vehicle id="veh134" type="veh_passenger" depart="367.00" departLane="best" departSpeed="max">
        <route edges="788602261#0 34080508#0 68668541#0 541330444#0 156994961#0 156994961#4 458106344#0 156994977#0 963575583#0"/>
    </vehicle>
    <vehicle id="veh135" type="veh_passenger" depart="369.74" departLane="best" departSpeed="max">
        <route edges="788602261#0 -1088320655#1 -465101198#1 -1088320657#1 -420598407#2 384178812"/>
    </vehicle>
    <vehicle id="veh136" type="veh_passenger" depart="372.48" departLane="best" departSpeed="max">
        <route edges="788602261#0 34080508#0 68668541#0 541330444#0 156994961#0 813970416#4 852992107#0 852992111#0 852992111#3 852992100#0 194923795#3 1266830888#1 1266830889 1266830890#0"/>
    </vehicle>
    <vehicle id="veh137" type="veh_passenger" depart="375.22" departLane="best">
        <route edges="852992102#0 481403099#1 420598356 465098271 420598335#0 420598349#0 465098285#0 420598333#0 458106344#0 156994977#0 963575583#0"/>
    </vehicle>
    <vehicle id="veh138" type="veh_passenger" depart="377.95" departLane="best">
        <route edges="1266830890#3 1266830891#0 196117090#0 846122853#0 68668541#0 68668541#4 889114521#0"/>
    </vehicle>
    <vehicle id="veh139" type="veh_passenger" depart="380.69" departLane="best">
        <route edges="420598335#0 420598349#0 465098285#0 420598333#0 156994969#0 813970415#0 813970417#0 196117090#2 1266830892 630828586#0 396444294#4"/>
    </vehicle>
    <vehicle id="veh140" type="veh_passenger" depart="383.43" departLane="best" departSpeed="max">
        <route edges="788602261#0 34080508#0 68668541#0 541330444#0 196117090#0"/>
    </vehicle>
    <vehicle id="veh141" type="veh_passenger" depart="386.17" departLane="best" departSpeed="max">
        <route edges="-384178812 420598407#0 5670836#0 954659191#0 813970416#0 813970416#4 852992107#0 852992111#0 852992111#3 852992100#0 194923795#3"/>
    </vehicle>
    <vehicle id="veh142" type="veh_passenger" depart="388.91" departLane="best">
        <route edges="194923811 983849667 420598345 465098276 420598337 420598356 465098271 420598335#0 420598349#0 465098285#0 420598333#0 458106344#0 156994977#0 963575583#0"/>
    </vehicle>
    <vehicle id="veh143" type="veh_passenger" depart="391.65" departLane="best">
        <route edges="983849667 420598345 465098276 420598337 420598356 465098271 420598335#0 420598349#0 465098285#0 420598333#0 156994969#0 465098290#0 420598339#0 384178812"/>
    </vehicle>
    <vehicle id="veh144" type="veh_passenger" depart="394.39" departLane="best" departSpeed="max">
        <route edges="483704512#0 483704512#1 1018454469#0 986615542#0 1021124545#0 420598327#0 -420598407#2 420598366"/>
    </vehicle>
    <vehicle id="veh146" type="veh_passenger" depart="399.86" departLane="best">
        <route edges="954659191#0 813970416#0 813970416#4 852992107#0 852992111#0 852992111#3 852992100#0 194923795#3 1266830888#1 1266830889 1266830890#0"/>
    </vehicle>
    <vehicle id="veh148" type="veh_passenger" depart="405.34" departLane="best">
        <route edges="983849667 420598345 465098276 420598337 420598356 465098271 420598335#0 420598349#0 465098285#0 420598333#0 156994969#0 465098290#0 420598339#0 384178812"/>
    </vehicle>
    <vehicle id="veh149" type="veh_passenger" depart="408.08" departLane="best" departSpeed="max">