<?xml version="1.0" encoding="UTF-8"?>

<!-- generated on 2025-04-15 12:10:45.790316 by osmWebWizard.py UNKNOWN
<configuration>
    <net-file value="/Users/wei/Sumo/2025-04-15-12-10-37/osm.net.xml.gz"/>
    <output-trip-file value="/Users/wei/Sumo/2025-04-15-12-10-37/osm.passenger.trips.xml"/>
    <route-file value="/Users/wei/Sumo/2025-04-15-12-10-37/osm.passenger.rou.xml"/>
    <prefix value="veh"/>
    <trip-attributes value="departLane=&quot;best&quot;"/>
    <fringe-start-attributes value="departSpeed=&quot;max&quot;"/>
    <vehicle-class value="passenger"/>
    <lanes value="True"/>
    <fringe-factor value="5"/>
    <allow-fringe.min-length value="1000.0"/>
    <via-edge-types value="highway.motorway,highway.motorway_link,highway.trunk_link,highway.primary_link,highway.secondary_link,highway.tertiary_link"/>
    <min-distance value="300.0"/>
    <min-distance.fringe value="10.0"/>
    <remove-loops value="True"/>
    <validate value="True"/>
    <insertion-density value="80.0"/>
</configuration>
-->

<!-- generated on 2025-04-15 12:10:45 by Eclipse SUMO duarouter Version 1.22.0
<duarouterConfiguration xmlns:xsi="http://www.w3.org/2001/XMLSchema-instance" xsi:noNamespaceSchemaLocation="http://sumo.dlr.de/xsd/duarouterConfiguration.xsd">

    <input>
        <net-file value="/Users/wei/Sumo/2025-04-15-12-10-37/osm.net.xml.gz"/>
        <route-files value="/Users/wei/Sumo/2025-04-15-12-10-37/osm.passenger.trips.xml"/>
    </input>

    <output>
        <output-file value="/Users/wei/Sumo/2025-04-15-12-10-37/osm.passenger.trips.xml.tmp"/>
        <alternatives-output value="NUL"/>
        <write-trips value="true"/>
    </output>

    <processing>
        <remove-loops value="true"/>
    </processing>

    <time>
        <begin value="0.0"/>
        <end value="3600.0"/>
    </time>

    <report>
        <no-warnings value="true"/>
        <ignore-errors value="true"/>
        <no-step-log value="true"/>
    </report>

</duarouterConfiguration>
-->

<routes xmlns:xsi="http://www.w3.org/2001/XMLSchema-instance" xsi:noNamespaceSchemaLocation="http://sumo.dlr.de/xsd/routes_file.xsd">
    <vType id="veh_passenger" vClass="passenger"/>
    <trip id="veh1" type="veh_passenger" depart="2.74" departLane="best" from="852992107#0" to="-1088320657#1"/>
    <trip id="veh2" type="veh_passenger" depart="5.48" departLane="best" from="1266830890#3" to="465098285#0"/>
    <trip id="veh3" type="veh_passenger" depart="8.22" departLane="best" departSpeed="max" from="-384178812" to="194923795#5"/>
    <trip id="veh5" type="veh_passenger" depart="13.69" departLane="best" from="1266830890#3" to="496993765"/>
    <trip id="veh6" type="veh_passenger" depart="16.43" departLane="best" departSpeed="max" from="196117074" to="1266830892"/>
    <trip id="veh7" type="veh_passenger" depart="19.17" departLane="best" from="983849667" to="420598335#0"/>
    <trip id="veh8" type="veh_passenger" depart="21.91" departLane="best" departSpeed="max" from="-5671620" to="1266830889"/>
    <trip id="veh9" type="veh_passenger" depart="24.65" departLane="best" from="813970417#0" to="5670876#0"/>
    <trip id="veh10" type="veh_passenger" depart="27.39" departLane="best" departSpeed="max" from="788602261#0" to="813970416#4"/>
    <trip id="veh11" type="veh_passenger" depart="30.13" departLane="best" from="465098276" to="968394450#0"/>
    <trip id="veh12" type="veh_passenger" depart="32.87" departLane="best" from="34080508#0" to="496993763"/>
    <trip id="veh13" type="veh_passenger" depart="35.60" departLane="best" from="813970416#0" to="5671620"/>
    <trip id="veh14" type="veh_passenger" depart="38.34" departLane="best" departSpeed="max" from="5672211#0" to="1018454469#0"/>
    <trip id="veh15" type="veh_passenger" depart="41.08" departLane="best" from="1266830890#3" to="384178812"/>
    <trip id="veh16" type="veh_passenger" depart="43.82" departLane="best" departSpeed="max" from="-5671620" to="196117090#2"/>
    <trip id="veh17" type="veh_passenger" depart="46.56" departLane="best" departSpeed="max" from="-5671620" to="384178812"/>
    <trip id="veh21" type="veh_passenger" depart="57.51" departLane="best" departSpeed="max" from="1266830888#0" to="813970416#4"/>
    <trip id="veh22" type="veh_passenger" depart="60.25" departLane="best" from="1088320658#0" to="420598356"/>
    <trip id="veh23" type="veh_passenger" depart="62.99" departLane="best" from="986615542#0" to="5671620"/>
    <trip id="veh24" type="veh_passenger" depart="65.73" departLane="best" from="465098290#0" to="630828586#0"/>
    <trip id="veh25" type="veh_passenger" depart="68.47" departLane="best" from="1266830890#3" to="-420598407#2"/>
    <trip id="veh26" type="veh_passenger" depart="71.21" departLane="best" departSpeed="max" from="194923795#0" to="384178812"/>
    <trip id="veh27" type="veh_passenger" depart="73.95" departLane="best" from="1266830890#0" to="968394450#0"/>
    <trip id="veh30" type="veh_passenger" depart="82.16" departLane="best" from="852992111#0" to="458106346"/>
    <trip id="veh32" type="veh_passenger" depart="87.64" departLane="best" departSpeed="max" from="465098295" to="963575583#0"/>
    <trip id="veh33" type="veh_passenger" depart="90.38" departLane="best" departSpeed="max" from="348477348" to="196117090#0"/>
    <trip id="veh34" type="veh_passenger" depart="93.12" departLane="best" from="986615542#0" to="465098285#0"/>
    <trip id="veh35" type="veh_passenger" depart="95.86" departLane="best" departSpeed="max" from="-5671620" to="1018454469#0"/>
    <trip id="veh36" type="veh_passenger" depart="98.60" departLane="best" departSpeed="max" from="788602261#0" to="420598366"/>
    <trip id="veh37" type="veh_passenger" depart="101.34" departLane="best" departSpeed="max" from="-458106348" to="420598356"/>
    <trip id="veh38" type="veh_passenger" depart="104.07" departLane="best" from="986615542#0" to="489019752#0"/>
    <trip id="veh40" type="veh_passenger" depart="109.55" departLane="best" from="-1088320655#1" to="813970416#0"/>
    <trip id="veh43" type="veh_passenger" depart="117.77" departLane="best" from="1018454469#0" to="420598366"/>
    <trip id="veh44" type="veh_passenger" depart="120.51" departLane="best" from="420598335#0" to="968394450#0"/>
    <trip id="veh46" type="veh_passenger" depart="125.98" departLane="best" from="852992111#0" to="963575583#0"/>
    <trip id="veh48" type="veh_passenger" depart="131.46" departLane="best" departSpeed="max" from="465098295" to="1266830892"/>
    <trip id="veh49" type="veh_passenger" depart="134.20" departLane="best" from="68668541#0" to="496993763"/>
    <trip id="veh50" type="veh_passenger" depart="136.94" departLane="best" departSpeed="max" from="788602261#0" to="489019752#0"/>
    <trip id="veh51" type="veh_passenger" depart="139.68" departLane="best" from="1080982439" to="420598333#0"/>
    <trip id="veh52" type="veh_passenger" depart="142.42" departLane="best" departSpeed="max" from="-384178812" to="968394450#0"/>
    <trip id="veh54" type="veh_passenger" depart="147.90" departLane="best" departSpeed="max" from="194923795#0" to="1021124545#0"/>
    <trip id="veh57" type="veh_passenger" depart="156.11" departLane="best" departSpeed="max" from="-458106348" to="852992102#3"/>
    <trip id="veh59" type="veh_passenger" depart="161.59" departLane="best" from="420598339#0" to="496993763"/>
    <trip id="veh62" type="veh_passenger" depart="169.81" departLane="best" from="465098276" to="813970416#4"/>
    <trip id="veh63" type="veh_passenger" depart="172.54" departLane="best" from="1266830889" to="420598327#0"/>
    <trip id="veh64" type="veh_passenger" depart="175.28" departLane="best" from="986615542#0" to="5671620"/>
    <trip id="veh65" type="veh_passenger" depart="178.02" departLane="best" from="1018454469#0" to="196117090#0"/>
    <trip id="veh66" type="veh_passenger" depart="180.76" departLane="best" departSpeed="max" from="-458106348" to="5671620"/>
    <trip id="veh67" type="veh_passenger" depart="183.50" departLane="best" from="1266830890#3" to="963575583#0"/>
    <trip id="veh68" type="veh_passenger" depart="186.24" departLane="best" from="852992100#0" to="1088320655#0"/>
    <trip id="veh69" type="veh_passenger" depart="188.98" departLane="best" from="1266830891#0" to="630828585#0"/>
    <trip id="veh70" type="veh_passenger" depart="191.72" departLane="best" from="954659191#0" to="496993765"/>
    <trip id="veh71" type="veh_passenger" depart="194.45" departLane="best" departSpeed="max" from="788602261#0" to="852992102#0"/>
    <trip id="veh72" type="veh_passenger" depart="197.19" departLane="best" departSpeed="max" from="-5671620" to="420598366"/>
    <trip id="veh74" type="veh_passenger" depart="202.67" departLane="best" from="5672450#3" to="630828585#0"/>
    <trip id="veh76" type="veh_passenger" depart="208.15" departLane="best" departSpeed="max" from="396444294#0" to="420598335#0"/>
    <trip id="veh77" type="veh_passenger" depart="210.89" departLane="best" from="852992100#0" to="34080062#4"/>
    <trip id="veh78" type="veh_passenger" depart="213.63" departLane="best" from="1266830889" to="458106346"/>
    <trip id="veh79" type="veh_passenger" depart="216.37" departLane="best" from="1266830892" to="968394450#0"/>
    <trip id="veh80" type="veh_passenger" depart="219.10" departLane="best" from="465098285#0" to="1018454469#0"/>
    <trip id="veh81" type="veh_passenger" depart="221.84" departLane="best" from="986615542#0" to="889114521#0"/>
    <trip id="veh82" type="veh_passenger" depart="224.58" departLane="best" from="813970417#0" to="1266830893#0"/>
    <trip id="veh84" type="veh_passenger" depart="230.06" departLane="best" departSpeed="max" from="348477348" to="1021124545#0"/>
    <trip id="veh87" type="veh_passenger" depart="238.28" departLane="best" from="420598335#0" to="420598366"/>
    <trip id="veh88" type="veh_passenger" depart="241.01" departLane="best" from="983849667" to="986615542#0"/>
    <trip id="veh90" type="veh_passenger" depart="246.49" departLane="best" from="465098276" to="852992100#0"/>
    <trip id="veh91" type="veh_passenger" depart="249.23" departLane="best" departSpeed="max" from="-458106348" to="496993765"/>
    <trip id="veh92" type="veh_passenger" depart="251.97" departLane="best" from="420598349#0" to="954659191#0"/>
    <trip id="veh93" type="veh_passenger" depart="254.71" departLane="best" from="1266830892" to="968394450#0"/>
    <trip id="veh94" type="veh_passenger" depart="257.45" departLane="best" departSpeed="max" from="-5671620" to="156994977#0"/>
    <trip id="veh95" type="veh_passenger" depart="260.19" departLane="best" departSpeed="max" from="465098295" to="630828585#0"/>
    <trip id="veh96" type="veh_passenger" depart="262.92" departLane="best" from="852992107#0" to="34080062#4"/>
    <trip id="veh97" type="veh_passenger" depart="265.66" departLane="best" departSpeed="max" from="465098295" to="5671620"/>
    <trip id="veh98" type="veh_passenger" depart="268.40" departLane="best" from="986615542#0" to="496993765"/>
    <trip id="veh100" type="veh_passenger" depart="273.88" departLane="best" from="1266830889" to="813970415#0"/>
    <trip id="veh101" type="veh_passenger" depart="276.62" departLane="best" from="1266830891#0" to="420598366"/>
    <trip id="veh102" type="veh_passenger" depart="279.36" departLane="best" departSpeed="max" from="496993920" to="396444294#4"/>
    <trip id="veh103" type="veh_passenger" depart="282.10" departLane="best" departSpeed="max" from="194923795#0" to="852992102#0"/>
    <trip id="veh104" type="veh_passenger" depart="284.84" departLane="best" from="-465101198#1" to="458106346"/>
    <trip id="veh107" type="veh_passenger" depart="293.05" departLane="best" from="813970416#0" to="68668541#0"/>
    <trip id="veh108" type="veh_passenger" depart="295.79" departLane="best" departSpeed="max" from="465098295" to="986615542#0"/>
    <trip id="veh111" type="veh_passenger" depart="304.01" departLane="best" from="1021124545#0" to="1266830890#0"/>
    <trip id="veh112" type="veh_passenger" depart="306.75" departLane="best" departSpeed="max" from="-5671620" to="496993765"/>
    <trip id="veh114" type="veh_passenger" depart="312.22" departLane="best" departSpeed="max" from="483704512#0" to="384178812"/>
    <trip id="veh115" type="veh_passenger" depart="314.96" departLane="best" from="420598345" to="963575583#0"/>
    <trip id="veh116" type="veh_passenger" depart="317.70" departLane="best" from="954659191#0" to="1266830888#1"/>
    <trip id="veh117" type="veh_passenger" depart="320.44" departLane="best" from="1080982439" to="852992107#0"/>
    <trip id="veh118" type="veh_passenger" depart="323.18" departLane="best" departSpeed="max" from="483704512#0" to="34080508#0"/>
    <trip id="veh119" type="veh_passenger" depart="325.92" departLane="best" from="630828586#0" to="496993763"/>
    <trip id="veh120" type="veh_passenger" depart="328.66" departLane="best" from="420598327#0" to="1088320655#0"/>
    <trip id="veh121" type="veh_passenger" depart="331.39" departLane="best" from="-465101198#1" to="963575583#0"/>
    <trip id="veh122" type="veh_passenger" depart="334.13" departLane="best" from="813970416#0" to="496993765"/>
    <trip id="veh123" type="veh_passenger" depart="336.87" departLane="best" from="1088320655#0" to="1266830890#3"/>
    <trip id="veh124" type="veh_passenger" depart="339.61" departLane="best" departSpeed="max" from="194923795#0" to="963575583#0"/>
    <trip id="veh125" type="veh_passenger" depart="342.35" departLane="best" departSpeed="max" from="788602261#0" to="963575583#0"/>
    <trip id="veh127" type="veh_passenger" depart="347.83" departLane="best" departSpeed="max" from="788602261#0" to="963575583#0"/>
    <trip id="veh128" type="veh_passenger" depart="350.57" departLane="best" departSpeed="max" from="396444294#0" to="5671620"/>
    <trip id="veh129" type="veh_passenger" depart="353.31" departLane="best" from="1266830892" to="968394450#0"/>
    <trip id="veh131" type="veh_passenger" depart="358.78" departLane="best" departSpeed="max" from="788602261#0" to="963575583#0"/>
    <trip id="veh132" type="veh_passenger" depart="361.52" departLane="best" departSpeed="max" from="-384178812" to="813970417#0"/>
    <trip id="veh133" type="veh_passenger" depart="364.26" departLane="best" from="194923811" to="968394450#0"/>
    <trip id="veh134" type="veh_passenger" depart="367.00" departLane="best" departSpeed="max" from="788602261#0" to="963575583#0"/>
    <trip id="veh135" type="veh_passenger" depart="369.74" departLane="best" departSpeed="max" from="788602261#0" to="384178812"/>
    <trip id="veh136" type="veh_passenger" depart="372.48" departLane="best" departSpeed="max" from="788602261#0" to="1266830890#0"/>
    <trip id="veh137" type="veh_passenger" depart="375.22" departLane="best" from="852992102#0" to="963575583#0"/>
    <trip id="veh138" type="veh_passenger" depart="377.95" departLane="best" from="1266830890#3" to="889114521#0"/>
    <trip id="veh139" type="veh_passenger" depart="380.69" departLane="best" from="420598335#0" to="396444294#4"/>
    <trip id="veh140" type="veh_passenger" depart="383.43" departLane="best" departSpeed="max" from="788602261#0" to="196117090#0"/>
    <trip id="veh141" type="veh_passenger" depart="386.17" departLane="best" departSpeed="max" from="-384178812" to="194923795#3"/>
    <trip id="veh142" type="veh_passenger" depart="388.91" departLane="best" from="194923811" to="963575583#0"/>
    <trip id="veh143" type="veh_passenger" depart="391.65" departLane="best" from="983849667" to="384178812"/>
    <trip id="veh144" type="veh_passenger" depart="394.39" departLane="best" departSpeed="max" from="483704512#0" to="420598366"/>
    <trip id="veh146" type="veh_passenger" depart="399.86" departLane="best" from="954659191#0" to="1266830890#0"/>
    <trip id="veh148" type="veh_passenger" depart="405.34" departLane="best" from="983849667" to="384178812"/>
    <trip id="veh149" type="veh_passenger" depart="408.08" departLane="best" departSpeed="max" from="-5671620" to="420598366"/>
    <trip id="veh150" type="veh_passenger" depart="410.82" departLane="best" from="5672450#3" to="420598327#0"/>
    <trip id="veh151" type="veh_passenger" depart="413.56" departLane="best" departSpeed="max" from="465098295" to="465098285#0"/>
    <trip id="veh152" type="veh_passenger" depart="416.30" departLane="best" from="34080508#0" to="496993765"/>
    <trip id="veh153" type="veh_passenger" depart="419.04" departLane="best" from="1266830892" to="68668541#4"/>
    <trip id="veh154" type="veh_passenger" depart="421.78" departLane="best" from="1080982439" to="968394450#0"/>
    <trip id="veh155" type="veh_passenger" depart="424.51" departLane="best" from="465098276" to="813970416#0"/>
    <trip id="veh156" type="veh_passenger" depart="427.25" departLane="best" from="630828586#0" to="630828585#0"/>
    <trip id="veh157" type="veh_passenger" depart="429.99" departLane="best" from="196117090#2" to="1088320655#0"/>
    <trip id="veh158" type="veh_passenger" depart="432.73" departLane="best" departSpeed="max" from="496993920" to="420598335#0"/>
    <trip id="veh159" type="veh_passenger" depart="435.47" departLane="best" departSpeed="max" from="194923795#0" to="954659191#0"/>
    <trip id="veh160" type="veh_passenger" depart="438.21" departLane="best" departSpeed="max" from="5672450#0" to="396444294#4"/>
    <trip id="veh161" type="veh_passenger" depart="440.95" departLane="best" departSpeed="max" from="194923795#0" to="420598366"/>
    <trip id="veh162" type="veh_passenger" depart="443.69" departLane="best" departSpeed="max" from="348477348" to="396444294#4"/>
    <trip id="veh163" type="veh_passenger" depart="446.42" departLane="best" departSpeed="max" from="963575585#0" to="630828586#0"/>
    <trip id="veh166" type="veh_passenger" depart="454.64" departLane="best" from="1080982439" to="384178812"/>
    <trip id="veh167" type="veh_passenger" depart="457.38" departLane="best" from="420598327#0" to="496993765"/>
    <trip id="veh170" type="veh_passenger" depart="465.60" departLane="best" from="420598337" to="963575583#0"/>
    <trip id="veh171" type="veh_passenger" depart="468.33" departLane="best" departSpeed="max" from="788602261#0" to="156994961#0"/>
    <trip id="veh172" type="veh_passenger" depart="471.07" departLane="best" departSpeed="max" from="-5671620" to="465098290#0"/>
    <trip id="veh173" type="veh_passenger" depart="473.81" departLane="best" departSpeed="max" from="483704512#0" to="420598335#0"/>
    <trip id="veh174" type="veh_passenger" depart="476.55" departLane="best" departSpeed="max" from="788602261#0" to="852992102#0"/>
    <trip id="veh175" type="veh_passenger" depart="479.29" departLane="best" departSpeed="max" from="496993920" to="196117090#0"/>
    <trip id="veh178" type="veh_passenger" depart="487.51" departLane="best" from="196117090#0" to="1088320655#0"/>
    <trip id="veh179" type="veh_passenger" depart="490.25" departLane="best" departSpeed="max" from="396444294#0" to="5671620"/>
    <trip id="veh180" type="veh_passenger" depart="492.98" departLane="best" from="1266830889" to="630828586#1"/>
    <trip id="veh181" type="veh_passenger" depart="495.72" departLane="best" from="420598345" to="34080062#4"/>
    <trip id="veh183" type="veh_passenger" depart="501.20" departLane="best" from="630828586#1" to="852992107#0"/>
    <trip id="veh184" type="veh_passenger" depart="503.94" departLane="best" departSpeed="max" from="-5671620" to="420598366"/>
    <trip id="veh185" type="veh_passenger" depart="506.68" departLane="best" departSpeed="max" from="1266830888#0" to="968394450#0"/>
    <trip id="veh186" type="veh_passenger" depart="509.42" departLane="best" departSpeed="max" from="496993920" to="986615542#0"/>
    <trip id="veh187" type="veh_passenger" depart="512.16" departLane="best" departSpeed="max" from="465098295" to="968394450#0"/>
    <trip id="veh188" type="veh_passenger" depart="514.89" departLane="best" from="852992107#0" to="5670876#0"/>
    <trip id="veh189" type="veh_passenger" depart="517.63" departLane="best" departSpeed="max" from="5672450#0" to="465098285#0"/>
    <trip id="veh190" type="veh_passenger" depart="520.37" departLane="best" from="813970416#0" to="496993763"/>
    <trip id="veh191" type="veh_passenger" depart="523.11" departLane="best" from="420598337" to="34080508#0"/>
    <trip id="veh192" type="veh_passenger" depart="525.85" departLane="best" from="1266830892" to="5671620"/>
    <trip id="veh194" type="veh_passenger" depart="531.33" departLane="best" from="481403099#1" to="384178812"/>
    <trip id="veh195" type="veh_passenger" depart="534.07" departLane="best" from="-465101198#1" to="384178812"/>
    <trip id="veh197" type="veh_passenger" depart="539.54" departLane="best" from="465098276" to="1266830891#0"/>
    <trip id="veh198" type="veh_passenger" depart="542.28" departLane="best" from="1266830891#0" to="630828586#1"/>
    <trip id="veh200" type="veh_passenger" depart="547.76" departLane="best" departSpeed="max" from="396444294#0" to="496993763"/>
    <trip id="veh201" type="veh_passenger" depart="550.50" departLane="best" departSpeed="max" from="396444294#0" to="194923795#5"/>
    <trip id="veh202" type="veh_passenger" depart="553.24" departLane="best" from="986615542#0" to="963575583#0"/>
    <trip id="veh203" type="veh_passenger" depart="555.98" departLane="best" departSpeed="max" from="465098295" to="630828586#1"/>
    <trip id="veh204" type="veh_passenger" depart="558.72" departLane="best" from="196117090#0" to="852992102#0"/>
    <trip id="veh205" type="veh_passenger" depart="561.45" departLane="best" from="852992100#0" to="968394450#0"/>
    <trip id="veh206" type="veh_passenger" depart="564.19" departLane="best" from="986615542#0" to="852992100#0"/>
    <trip id="veh207" type="veh_passenger" depart="566.93" departLane="best" from="465098285#0" to="5670876#0"/>
    <trip id="veh209" type="veh_passenger" depart="572.41" departLane="best" departSpeed="max" from="196117074" to="630828586#0"/>
    <trip id="veh210" type="veh_passenger" depart="575.15" departLane="best" departSpeed="max" from="396444294#0" to="1266830893#0"/>
    <trip id="veh211" type="veh_passenger" depart="577.89" departLane="best" from="420598337" to="1266830890#3"/>
    <trip id="veh212" type="veh_passenger" depart="580.63" departLane="best" departSpeed="max" from="348477348" to="496993765"/>
    <trip id="veh213" type="veh_passenger" depart="583.36" departLane="best" departSpeed="max" from="-384178812" to="5671620"/>
    <trip id="veh214" type="veh_passenger" depart="586.10" departLane="best" departSpeed="max" from="-384178812" to="420598356"/>
    <trip id="veh215" type="veh_passenger" depart="588.84" departLane="best" from="1266830890#0" to="420598333#0"/>
    <trip id="veh216" type="veh_passenger" depart="591.58" departLane="best" from="68668541#0" to="420598356"/>
    <trip id="veh217" type="veh_passenger" depart="594.32" departLane="best" from="630828586#1" to="889114521#0"/>
    <trip id="veh218" type="veh_passenger" depart="597.06" departLane="best" departSpeed="max" from="-384178812" to="496993763"/>
    <trip id="veh222" type="veh_passenger" depart="608.01" departLane="best" departSpeed="max" from="963575585#0" to="194923795#5"/>
    <trip id="veh223" type="veh_passenger" depart="610.75" departLane="best" departSpeed="max" from="-384178812" to="1266830892"/>
    <trip id="veh224" type="veh_passenger" depart="613.49" departLane="best" from="1021124545#0" to="630828585#0"/>
    <trip id="veh225" type="veh_passenger" depart="616.23" departLane="best" departSpeed="max" from="465098295" to="196117090#0"/>
    <trip id="veh226" type="veh_passenger" depart="618.97" departLane="best" departSpeed="max" from="5672211#0" to="852992107#0"/>
    <trip id="veh227" type="veh_passenger" depart="621.71" departLane="best" from="110489637#0" to="5670876#0"/>
    <trip id="veh228" type="veh_passenger" depart="624.45" departLane="best" from="630828586#1" to="1266830890#0"/>
    <trip id="veh229" type="veh_passenger" depart="627.19" departLane="best" departSpeed="max" from="788602261#0" to="968394450#0"/>
    <trip id="veh231" type="veh_passenger" depart="632.66" departLane="best" departSpeed="max" from="194923795#0" to="630828586#0"/>
    <trip id="veh232" type="veh_passenger" depart="635.40" departLane="best" from="983849667" to="420598366"/>
    <trip id="veh233" type="veh_passenger" depart="638.14" departLane="best" departSpeed="max" from="5672450#0" to="1088320655#0"/>
    <trip id="veh234" type="veh_passenger" depart="640.88" departLane="best" from="5670836#0" to="5671620"/>
    <trip id="veh235" type="veh_passenger" depart="643.62" departLane="best" departSpeed="max" from="-5671620" to="852992107#0"/>
    <trip id="veh238" type="veh_passenger" depart="651.83" departLane="best" from="420598327#0" to="420598349#0"/>
    <trip id="veh239" type="veh_passenger" depart="654.57" departLane="best" from="846122853#0" to="889114521#0"/>
    <trip id="veh240" type="veh_passenger" depart="657.31" departLane="best" departSpeed="max" from="-5671620" to="968394450#0"/>
    <trip id="veh241" type="veh_passenger" depart="660.05" departLane="best" departSpeed="max" from="483704512#0" to="889114521#0"/>
    <trip id="veh242" type="veh_passenger" depart="662.79" departLane="best" departSpeed="max" from="5672211#0" to="420598366"/>
    <trip id="veh243" type="veh_passenger" depart="665.53" departLane="best" from="630828586#0" to="968394450#0"/>
    <trip id="veh247" type="veh_passenger" depart="676.48" departLane="best" from="420598337" to="5670876#0"/>
    <trip id="veh249" type="veh_passenger" depart="681.96" departLane="best" from="846122853#0" to="156994969#0"/>
    <trip id="veh250" type="veh_passenger" depart="684.70" departLane="best" departSpeed="max" from="196117074" to="963575583#0"/>
    <trip id="veh251" type="veh_passenger" depart="687.44" departLane="best" departSpeed="max" from="5672211#0" to="384178812"/>
    <trip id="veh252" type="veh_passenger" depart="690.18" departLane="best" from="1088320655#0" to="968394450#0"/>
    <trip id="veh253" type="veh_passenger" depart="692.92" departLane="best" departSpeed="max" from="-5671620" to="813970416#0"/>
    <trip id="veh254" type="veh_passenger" depart="695.66" departLane="best" from="420598345" to="852992102#0"/>
    <trip id="veh255" type="veh_passenger" depart="698.39" departLane="best" from="5670836#0" to="5671620"/>
    <trip id="veh256" type="veh_passenger" depart="701.13" departLane="best" from="420598345" to="852992111#0"/>
    <trip id="veh257" type="veh_passenger" depart="703.87" departLane="best" departSpeed="max" from="-5671620" to="196117090#0"/>
    <trip id="veh258" type="veh_passenger" depart="706.61" departLane="best" from="465098271" to="420598366"/>
    <trip id="veh259" type="veh_passenger" depart="709.35" departLane="best" from="630828586#1" to="420598335#0"/>
    <trip id="veh260" type="veh_passenger" depart="712.09" departLane="best" departSpeed="max" from="5672211#0" to="384178812"/>
    <trip id="veh262" type="veh_passenger" depart="717.57" departLane="best" from="813970416#0" to="1266830889"/>
    <trip id="veh263" type="veh_passenger" depart="720.30" departLane="best" departSpeed="max" from="1266830888#0" to="-1088320657#1"/>
    <trip id="veh264" type="veh_passenger" depart="723.04" departLane="best" from="465098271" to="384178812"/>
    <trip id="veh266" type="veh_passenger" depart="728.52" departLane="best" departSpeed="max" from="5672211#0" to="1266830890#3"/>
    <trip id="veh267" type="veh_passenger" depart="731.26" departLane="best" from="420598337" to="420598407#0"/>
    <trip id="veh268" type="veh_passenger" depart="734.00" departLane="best" departSpeed="max" from="1266830888#0" to="1021124545#0"/>
    <trip id="veh270" type="veh_passenger" depart="739.48" departLane="best" from="803024464#0" to="420598366"/>
    <trip id="veh271" type="veh_passenger" depart="742.21" departLane="best" from="465098290#0" to="396444294#4"/>
    <trip id="veh272" type="veh_passenger" depart="744.95" departLane="best" from="986615542#0" to="1266830890#3"/>
    <trip id="veh273" type="veh_passenger" depart="747.69" departLane="best" departSpeed="max" from="788602261#0" to="196117090#0"/>
    <trip id="veh275" type="veh_passenger" depart="753.17" departLane="best" from="986615542#0" to="396444294#4"/>
    <trip id="veh276" type="veh_passenger" depart="755.91" departLane="best" departSpeed="max" from="465098295" to="5670876#0"/>
    <trip id="veh277" type="veh_passenger" depart="758.65" departLane="best" from="630828586#0" to="968394450#0"/>
    <trip id="veh280" type="veh_passenger" depart="766.86" departLane="best" departSpeed="max" from="1266830888#0" to="1088320655#0"/>
    <trip id="veh281" type="veh_passenger" depart="769.60" departLane="best" departSpeed="max" from="465098295" to="630828586#1"/>
    <trip id="veh282" type="veh_passenger" depart="772.34" departLane="best" from="1266830891#0" to="68668541#4"/>
    <trip id="veh283" type="veh_passenger" depart="775.08" departLane="best" departSpeed="max" from="5672211#0" to="458106346"/>
    <trip id="veh284" type="veh_passenger" depart="777.82" departLane="best" from="5670836#0" to="968394450#0"/>
    <trip id="veh286" type="veh_passenger" depart="783.30" departLane="best" from="420598327#0" to="496993763"/>
    <trip id="veh287" type="veh_passenger" depart="786.04" departLane="best" from="483704512#1" to="963575583#0"/>
    <trip id="veh288" type="veh_passenger" depart="788.77" departLane="best" from="813970415#0" to="1088320655#0"/>
    <trip id="veh289" type="veh_passenger" depart="791.51" departLane="best" from="630828586#1" to="496993765"/>
    <trip id="veh290" type="veh_passenger" depart="794.25" departLane="best" from="156994969#0" to="1266830890#3"/>
    <trip id="veh291" type="veh_passenger" depart="796.99" departLane="best" from="5670836#0" to="68668541#0"/>
    <trip id="veh293" type="veh_passenger" depart="802.47" departLane="best" from="420598345" to="1088320656#0"/>