<configuration>
  <input>
    <net-file value="exp.net.xml"/>
    <route-files value="exp_10804.rou.xml"/>
    <additional-files value="exp.add.xml"/>
  </input>
  <time>
    <begin value="0"/>
    <end value="3600"/>
  </time>
</configuration>
