<additional>
    <polyline id="edge_2_30" color="red" shape="260.75,574.82 296.51,648.62" layer="2"/>
    <polyline id="edge_3_22" color="red" shape="1043.37,604.63 1011.41,532.68" layer="2"/>
    <polyline id="edge_4_0" color="red" shape="898.1900000000003,322.27 1100.92,212.04" layer="2"/>
    <polyline id="edge_4_14" color="red" shape="898.1900000000003,322.27 861.2799999999999,250.56999999999996" layer="2"/>
    <polyline id="edge_5_48" color="red" shape="979.5299999999999,457.27999999999986 935.5200000000002,391.22" layer="2"/>
    <polyline id="edge_6_7" color="red" shape="246.21999999999994,222.02 284.13000000000005,292.30000000000007" layer="2"/>
    <polyline id="edge_6_16" color="red" shape="246.21999999999994,222.02 208.36999999999992,151.90000000000003" layer="2"/>
    <polyline id="edge_7_6" color="red" shape="284.13000000000005,292.30000000000007 246.21999999999994,222.02" layer="2"/>
    <polyline id="edge_7_17" color="red" shape="284.13000000000005,292.30000000000007 422.52,217.33" layer="2"/>
    <polyline id="edge_7_18" color="red" shape="284.13000000000005,292.30000000000007 321.61999999999995,361.8000000000001" layer="2"/>
    <polyline id="edge_8_23" color="red" shape="346.21,76.87 310.14,3.43" layer="2"/>
    <polyline id="edge_8_28" color="red" shape="346.21,76.87 484.65000000000003,0.0" layer="2"/>
    <polyline id="edge_9_26" color="red" shape="105.13,297.75 146.84,364.30000000000007" layer="2"/>
    <polyline id="edge_10_35" color="red" shape="595.04,213.67000000000004 632.75,284.05000000000007" layer="2"/>
    <polyline id="edge_10_43" color="red" shape="595.04,213.67000000000004 459.44,286.51" layer="2"/>
    <polyline id="edge_11_12" color="red" shape="470.44,645.61 435.1499999999999,572.3999999999999" layer="2"/>
    <polyline id="edge_12_11" color="red" shape="435.1499999999999,572.3999999999999 470.44,645.61" layer="2"/>
    <polyline id="edge_12_13" color="red" shape="435.1499999999999,572.3999999999999 397.22999999999996,501.83" layer="2"/>
    <polyline id="edge_12_44" color="red" shape="435.1499999999999,572.3999999999999 573.21,497.38999999999993" layer="2"/>
    <polyline id="edge_13_12" color="red" shape="397.22999999999996,501.83 435.1499999999999,572.3999999999999" layer="2"/>
    <polyline id="edge_13_19" color="red" shape="397.22999999999996,501.83 359.0100000000001,431.02000000000004" layer="2"/>
    <polyline id="edge_14_33" color="red" shape="861.2799999999999,250.56999999999996 823.71,180.54" layer="2"/>
    <polyline id="edge_14_36" color="red" shape="861.2799999999999,250.56999999999996 670.4700000000001,353.58" layer="2"/>
    <polyline id="edge_15_39" color="red" shape="85.71000000000001,578.9899999999999 48.040000000000006,508.15000000000003" layer="2"/>
    <polyline id="edge_15_40" color="red" shape="85.71000000000001,578.9899999999999 222.78,504.47999999999996" layer="2"/>
    <polyline id="edge_16_6" color="red" shape="208.36999999999992,151.90000000000003 246.21999999999994,222.02" layer="2"/>
    <polyline id="edge_17_24" color="red" shape="422.52,217.33 557.0599999999998,143.71" layer="2"/>
    <polyline id="edge_17_42" color="red" shape="422.52,217.33 383.88000000000005,146.01" layer="2"/>
    <polyline id="edge_18_7" color="red" shape="321.61999999999995,361.8000000000001 284.13000000000005,292.30000000000007" layer="2"/>
    <polyline id="edge_18_19" color="red" shape="321.61999999999995,361.8000000000001 359.0100000000001,431.02000000000004" layer="2"/>
    <polyline id="edge_18_41" color="red" shape="321.61999999999995,361.8000000000001 185.15000000000003,434.94999999999993" layer="2"/>
    <polyline id="edge_19_13" color="red" shape="359.0100000000001,431.02000000000004 397.22999999999996,501.83" layer="2"/>
    <polyline id="edge_19_18" color="red" shape="359.0100000000001,431.02000000000004 321.61999999999995,361.8000000000001" layer="2"/>
    <polyline id="edge_19_46" color="red" shape="359.0100000000001,431.02000000000004 497.27999999999986,356.67" layer="2"/>
    <polyline id="edge_20_10" color="red" shape="785.87,110.59 595.04,213.67000000000004" layer="2"/>
    <polyline id="edge_22_5" color="red" shape="1011.41,532.68 979.5299999999999,457.27999999999986" layer="2"/>
    <polyline id="edge_22_32" color="red" shape="1011.41,532.68 820.8000000000001,633.81" layer="2"/>
    <polyline id="edge_24_10" color="red" shape="557.0599999999998,143.71 595.04,213.67000000000004" layer="2"/>
    <polyline id="edge_25_26" color="red" shape="6.27,437.97 146.84,364.30000000000007" layer="2"/>
    <polyline id="edge_26_7" color="red" shape="146.84,364.30000000000007 284.13000000000005,292.30000000000007" layer="2"/>
    <polyline id="edge_26_41" color="red" shape="146.84,364.30000000000007 185.15000000000003,434.94999999999993" layer="2"/>
    <polyline id="edge_27_31" color="red" shape="29.94,158.33 67.99,228.2" layer="2"/>
    <polyline id="edge_28_34" color="red" shape="484.65000000000003,0.0 519.3599999999999,74.10000000000001" layer="2"/>
    <polyline id="edge_29_38" color="red" shape="745.8799999999999,493.51000000000016 783.7200000000001,564.33" layer="2"/>
    <polyline id="edge_29_47" color="red" shape="745.8799999999999,493.51000000000016 610.68,566.7399999999999" layer="2"/>
    <polyline id="edge_30_12" color="red" shape="296.51,648.62 435.1499999999999,572.3999999999999" layer="2"/>
    <polyline id="edge_33_20" color="red" shape="823.71,180.54 785.87,110.59" layer="2"/>
    <polyline id="edge_33_21" color="red" shape="823.71,180.54 1030.87,68.12" layer="2"/>
    <polyline id="edge_34_24" color="red" shape="519.3599999999999,74.10000000000001 557.0599999999998,143.71" layer="2"/>
    <polyline id="edge_34_42" color="red" shape="519.3599999999999,74.10000000000001 383.88000000000005,146.01" layer="2"/>
    <polyline id="edge_35_33" color="red" shape="632.75,284.05000000000007 823.71,180.54" layer="2"/>
    <polyline id="edge_35_36" color="red" shape="632.75,284.05000000000007 670.4700000000001,353.58" layer="2"/>
    <polyline id="edge_36_37" color="red" shape="670.4700000000001,353.58 708.9799999999999,425.5" layer="2"/>
    <polyline id="edge_36_45" color="red" shape="670.4700000000001,353.58 534.85,426.67999999999995" layer="2"/>
    <polyline id="edge_37_4" color="red" shape="708.9799999999999,425.5 898.1900000000003,322.27" layer="2"/>
    <polyline id="edge_37_29" color="red" shape="708.9799999999999,425.5 745.8799999999999,493.51000000000016" layer="2"/>
    <polyline id="edge_38_5" color="red" shape="783.7200000000001,564.33 979.5299999999999,457.27999999999986" layer="2"/>
    <polyline id="edge_38_32" color="red" shape="783.7200000000001,564.33 820.8000000000001,633.81" layer="2"/>
    <polyline id="edge_39_25" color="red" shape="48.040000000000006,508.15000000000003 6.27,437.97" layer="2"/>
    <polyline id="edge_40_19" color="red" shape="222.78,504.47999999999996 359.0100000000001,431.02000000000004" layer="2"/>
    <polyline id="edge_41_40" color="red" shape="185.15000000000003,434.94999999999993 222.78,504.47999999999996" layer="2"/>
    <polyline id="edge_42_6" color="red" shape="383.88000000000005,146.01 246.21999999999994,222.02" layer="2"/>
    <polyline id="edge_42_8" color="red" shape="383.88000000000005,146.01 346.21,76.87" layer="2"/>
    <polyline id="edge_43_17" color="red" shape="459.44,286.51 422.52,217.33" layer="2"/>
    <polyline id="edge_43_18" color="red" shape="459.44,286.51 321.61999999999995,361.8000000000001" layer="2"/>
    <polyline id="edge_44_37" color="red" shape="573.21,497.38999999999993 708.9799999999999,425.5" layer="2"/>
    <polyline id="edge_44_45" color="red" shape="573.21,497.38999999999993 534.85,426.67999999999995" layer="2"/>
    <polyline id="edge_45_46" color="red" shape="534.85,426.67999999999995 497.27999999999986,356.67" layer="2"/>
    <polyline id="edge_46_35" color="red" shape="497.27999999999986,356.67 632.75,284.05000000000007" layer="2"/>
    <polyline id="edge_46_43" color="red" shape="497.27999999999986,356.67 459.44,286.51" layer="2"/>
    <polyline id="edge_47_44" color="red" shape="610.68,566.7399999999999 573.21,497.38999999999993" layer="2"/>
    <polyline id="edge_49_15" color="red" shape="121.78,653.49 85.71000000000001,578.9899999999999" layer="2"/>
    <polyline id="edge_50_0" color="red" shape="1068.1499999999999,138.35 1100.92,212.04" layer="2"/>
    <polyline id="edge_50_14" color="red" shape="1068.1499999999999,138.35 861.2799999999999,250.56999999999996" layer="2"/>
</additional>
