<?xml version="1.0" encoding="UTF-8"?>

<!-- generated on 2025-04-15 12:47:00.781050 by osmWebWizard.py UNKNOWN
<configuration>
    <net-file value="/Users/wei/Sumo/2025-04-15-12-46-52/osm.net.xml.gz"/>
    <output-trip-file value="/Users/wei/Sumo/2025-04-15-12-46-52/osm.passenger.trips.xml"/>
    <route-file value="/Users/wei/Sumo/2025-04-15-12-46-52/osm.passenger.rou.xml"/>
    <prefix value="veh"/>
    <trip-attributes value="departLane=&quot;best&quot;"/>
    <fringe-start-attributes value="departSpeed=&quot;max&quot;"/>
    <vehicle-class value="passenger"/>
    <lanes value="True"/>
    <fringe-factor value="5"/>
    <allow-fringe.min-length value="1000.0"/>
    <via-edge-types value="highway.motorway,highway.motorway_link,highway.trunk_link,highway.primary_link,highway.secondary_link,highway.tertiary_link"/>
    <min-distance value="300.0"/>
    <min-distance.fringe value="10.0"/>
    <remove-loops value="True"/>
    <validate value="True"/>
    <insertion-density value="80.0"/>
</configuration>
-->

<!-- generated on 2025-04-15 12:47:00 by Eclipse SUMO duarouter Version 1.22.0
<duarouterConfiguration xmlns:xsi="http://www.w3.org/2001/XMLSchema-instance" xsi:noNamespaceSchemaLocation="http://sumo.dlr.de/xsd/duarouterConfiguration.xsd">

    <input>
        <net-file value="/Users/wei/Sumo/2025-04-15-12-46-52/osm.net.xml.gz"/>
        <route-files value="/Users/wei/Sumo/2025-04-15-12-46-52/osm.passenger.trips.xml"/>
    </input>

    <output>
        <output-file value="/Users/wei/Sumo/2025-04-15-12-46-52/osm.passenger.trips.xml.tmp"/>
        <alternatives-output value="NUL"/>
        <write-trips value="true"/>
    </output>

    <processing>
        <remove-loops value="true"/>
    </processing>

    <time>
        <begin value="0.0"/>
        <end value="3600.0"/>
    </time>

    <report>
        <no-warnings value="true"/>
        <ignore-errors value="true"/>
        <no-step-log value="true"/>
    </report>

</duarouterConfiguration>
-->

<routes xmlns:xsi="http://www.w3.org/2001/XMLSchema-instance" xsi:noNamespaceSchemaLocation="http://sumo.dlr.de/xsd/routes_file.xsd">
    <vType id="veh_passenger" vClass="passenger"/>
    <trip id="veh1" type="veh_passenger" depart="1.73" departLane="best" from="420906743#0" to="1352944235#0"/>
    <trip id="veh2" type="veh_passenger" depart="3.46" departLane="best" from="670988060#0" to="1030123275#0"/>
    <trip id="veh4" type="veh_passenger" depart="6.91" departLane="best" departSpeed="max" from="169381958#0" to="46521998#0"/>
    <trip id="veh5" type="veh_passenger" depart="8.64" departLane="best" departSpeed="max" from="-587038175" to="1201651437#0"/>
    <trip id="veh6" type="veh_passenger" depart="10.37" departLane="best" departSpeed="max" from="458180195#0" to="458166897#7"/>
    <trip id="veh7" type="veh_passenger" depart="12.10" departLane="best" departSpeed="max" from="169381958#0" to="458180186#0"/>
    <trip id="veh9" type="veh_passenger" depart="15.55" departLane="best" departSpeed="max" from="587355676" to="5671629#0"/>
    <trip id="veh10" type="veh_passenger" depart="17.28" departLane="best" departSpeed="max" from="44165033" to="1135661892#0"/>
    <trip id="veh11" type="veh_passenger" depart="19.01" departLane="best" from="884400286#0" to="420356172#0"/>
    <trip id="veh12" type="veh_passenger" depart="20.74" departLane="best" from="1049841322#0" to="1030123275#0"/>
    <trip id="veh13" type="veh_passenger" depart="22.46" departLane="best" departSpeed="max" from="619280607#0" to="458180187#3"/>
    <trip id="veh14" type="veh_passenger" depart="24.19" departLane="best" departSpeed="max" from="587355676" to="569345518#0"/>
    <trip id="veh15" type="veh_passenger" depart="25.92" departLane="best" from="458180187#0" to="884400289#3"/>
    <trip id="veh16" type="veh_passenger" depart="27.65" departLane="best" departSpeed="max" from="619280607#0" to="458180186#0"/>
    <trip id="veh17" type="veh_passenger" depart="29.38" departLane="best" departSpeed="max" from="619280612#0" to="458180184#0"/>
    <trip id="veh18" type="veh_passenger" depart="31.10" departLane="best" from="1061623142#0" to="226041006#3"/>
    <trip id="veh19" type="veh_passenger" depart="32.83" departLane="best" from="1030123278#0" to="1376704196#0"/>
    <trip id="veh20" type="veh_passenger" depart="34.56" departLane="best" departSpeed="max" from="458180195#0" to="420902878#0"/>
    <trip id="veh21" type="veh_passenger" depart="36.29" departLane="best" from="456409017#0" to="1201651437#0"/>
    <trip id="veh22" type="veh_passenger" depart="38.02" departLane="best" from="420806146#0" to="884400289#3"/>
    <trip id="veh23" type="veh_passenger" depart="39.74" departLane="best" departSpeed="max" from="458180195#0" to="458180187#6"/>
    <trip id="veh24" type="veh_passenger" depart="41.47" departLane="best" departSpeed="max" from="988977545#0" to="458180193#0"/>
    <trip id="veh26" type="veh_passenger" depart="44.93" departLane="best" from="196117039#0" to="1023236297#0"/>
    <trip id="veh27" type="veh_passenger" depart="46.66" departLane="best" departSpeed="max" from="438384693" to="169267541#0"/>
    <trip id="veh28" type="veh_passenger" depart="48.39" departLane="best" from="169267543#0" to="884400289#3"/>
    <trip id="veh29" type="veh_passenger" depart="50.11" departLane="best" from="619280617#0" to="22916381#0"/>
    <trip id="veh30" type="veh_passenger" depart="51.84" departLane="best" departSpeed="max" from="458180195#0" to="439768850#0"/>
    <trip id="veh31" type="veh_passenger" depart="53.57" departLane="best" from="420806146#0" to="569345515#6"/>
    <trip id="veh32" type="veh_passenger" depart="55.30" departLane="best" from="458180193#3" to="727702633"/>
    <trip id="veh33" type="veh_passenger" depart="57.03" departLane="best" from="458166897#10" to="1201651437#3"/>
    <trip id="veh34" type="veh_passenger" depart="58.75" departLane="best" from="458166897#1" to="458166897#22"/>
    <trip id="veh36" type="veh_passenger" depart="62.21" departLane="best" from="1061623142#0" to="458180190#0"/>
    <trip id="veh38" type="veh_passenger" depart="65.67" departLane="best" from="1030119893#0" to="420906753#0"/>
    <trip id="veh39" type="veh_passenger" depart="67.39" departLane="best" from="458166897#1" to="458166897#25"/>
    <trip id="veh41" type="veh_passenger" depart="70.85" departLane="best" departSpeed="max" from="-587038175" to="569345515#3"/>
    <trip id="veh42" type="veh_passenger" depart="72.58" departLane="best" from="496993762#0" to="458166897#4"/>
    <trip id="veh43" type="veh_passenger" depart="74.31" departLane="best" from="1106482765#0" to="456409017#0"/>
    <trip id="veh44" type="veh_passenger" depart="76.03" departLane="best" from="458166897#22" to="884400289#3"/>
    <trip id="veh45" type="veh_passenger" depart="77.76" departLane="best" from="619280617#0" to="1376704198#6"/>
    <trip id="veh46" type="veh_passenger" depart="79.49" departLane="best" from="458180182#0" to="1201651435#3"/>
    <trip id="veh48" type="veh_passenger" depart="82.95" departLane="best" from="420906755#0" to="458180193#0"/>
    <trip id="veh49" type="veh_passenger" depart="84.67" departLane="best" departSpeed="max" from="458180194#0" to="1135661892#0"/>
    <trip id="veh50" type="veh_passenger" depart="86.40" departLane="best" from="569345515#0" to="458166897#4"/>
    <trip id="veh51" type="veh_passenger" depart="88.13" departLane="best" from="1376704198#0" to="458166897#25"/>
    <trip id="veh52" type="veh_passenger" depart="89.86" departLane="best" departSpeed="max" from="-587038175" to="884400289#0"/>
    <trip id="veh53" type="veh_passenger" depart="91.59" departLane="best" from="619280617#0" to="710571388#0"/>
    <trip id="veh55" type="veh_passenger" depart="95.04" departLane="best" from="1030123278#0" to="458166897#16"/>
    <trip id="veh57" type="veh_passenger" depart="98.50" departLane="best" from="458166897#16" to="1201651437#0"/>
    <trip id="veh58" type="veh_passenger" depart="100.23" departLane="best" from="458180187#3" to="569345518#0"/>
    <trip id="veh59" type="veh_passenger" depart="101.95" departLane="best" from="169267541#0" to="22916381#0"/>
    <trip id="veh60" type="veh_passenger" depart="103.68" departLane="best" departSpeed="max" from="988977545#0" to="458180193#3"/>
    <trip id="veh61" type="veh_passenger" depart="105.41" departLane="best" from="1106482768#0" to="1352944235#0"/>
    <trip id="veh62" type="veh_passenger" depart="107.14" departLane="best" departSpeed="max" from="44165033" to="1376704198#3"/>
    <trip id="veh63" type="veh_passenger" depart="108.87" departLane="best" from="196117039#0" to="1209567443#0"/>
    <trip id="veh64" type="veh_passenger" depart="110.59" departLane="best" from="1030119893#0" to="458180190#0"/>
    <trip id="veh65" type="veh_passenger" depart="112.32" departLane="best" from="196117039#0" to="743358443#3"/>
    <trip id="veh66" type="veh_passenger" depart="114.05" departLane="best" from="384178816#0" to="46522002#0"/>
    <trip id="veh67" type="veh_passenger" depart="115.78" departLane="best" departSpeed="max" from="169381958#0" to="1049841322#3"/>
    <trip id="veh68" type="veh_passenger" depart="117.51" departLane="best" departSpeed="max" from="819074878" to="458180182#0"/>
    <trip id="veh70" type="veh_passenger" depart="120.96" departLane="best" departSpeed="max" from="587355676" to="1201651437#0"/>
    <trip id="veh71" type="veh_passenger" depart="122.69" departLane="best" from="1049841322#3" to="456409017#0"/>
    <trip id="veh72" type="veh_passenger" depart="124.42" departLane="best" departSpeed="max" from="5670867#0" to="46522003#0"/>
    <trip id="veh73" type="veh_passenger" depart="126.15" departLane="best" from="458166897#10" to="420356172#0"/>
    <trip id="veh74" type="veh_passenger" depart="127.87" departLane="best" departSpeed="max" from="619280612#0" to="569345515#6"/>
    <trip id="veh75" type="veh_passenger" depart="129.60" departLane="best" from="1376704198#3" to="458166897#1"/>
    <trip id="veh76" type="veh_passenger" depart="131.33" departLane="best" from="458166897#16" to="196117039#0"/>
    <trip id="veh77" type="veh_passenger" depart="133.06" departLane="best" from="420356173#0" to="884400289#0"/>
    <trip id="veh79" type="veh_passenger" depart="136.51" departLane="best" from="988977545#5" to="710571388#0"/>
    <trip id="veh80" type="veh_passenger" depart="138.24" departLane="best" departSpeed="max" from="619280607#0" to="1201651434#0"/>
    <trip id="veh81" type="veh_passenger" depart="139.97" departLane="best" from="458166897#7" to="1201651437#3"/>
    <trip id="veh84" type="veh_passenger" depart="145.16" departLane="best" from="1201651437#3" to="22916381#0"/>
    <trip id="veh87" type="veh_passenger" depart="150.34" departLane="best" from="1030119892#0" to="458180185#0"/>
    <trip id="veh88" type="veh_passenger" depart="152.07" departLane="best" from="458180182#0" to="710571389#0"/>
    <trip id="veh89" type="veh_passenger" depart="153.80" departLane="best" from="1030123278#0" to="1201651437#0"/>
    <trip id="veh90" type="veh_passenger" depart="155.52" departLane="best" from="458180193#6" to="1051743127#0"/>
    <trip id="veh91" type="veh_passenger" depart="157.25" departLane="best" from="384178816#0" to="1037772010#0"/>
    <trip id="veh92" type="veh_passenger" depart="158.98" departLane="best" from="670988060#0" to="569345515#6"/>
    <trip id="veh93" type="veh_passenger" depart="160.71" departLane="best" from="458166897#16" to="458180185#0"/>
    <trip id="veh94" type="veh_passenger" depart="162.44" departLane="best" from="458180185#0" to="884400289#3"/>
    <trip id="veh95" type="veh_passenger" depart="164.16" departLane="best" from="169267541#0" to="458180186#4"/>
    <trip id="veh96" type="veh_passenger" depart="165.89" departLane="best" from="384178816#0" to="439768850#0"/>
    <trip id="veh97" type="veh_passenger" depart="167.62" departLane="best" from="46522003#0" to="22916381#0"/>
    <trip id="veh99" type="veh_passenger" depart="171.08" departLane="best" from="1030123277#0" to="1201651437#0"/>
    <trip id="veh100" type="veh_passenger" depart="172.80" departLane="best" from="420806146#0" to="884400289#3"/>
    <trip id="veh102" type="veh_passenger" depart="176.26" departLane="best" from="456409017#0" to="1135661892#0"/>
    <trip id="veh103" type="veh_passenger" depart="177.99" departLane="best" departSpeed="max" from="619280607#0" to="441405435#0"/>
    <trip id="veh104" type="veh_passenger" depart="179.72" departLane="best" departSpeed="max" from="458180194#0" to="884400294#0"/>
    <trip id="veh106" type="veh_passenger" depart="183.17" departLane="best" departSpeed="max" from="587355676" to="22916381#0"/>
    <trip id="veh107" type="veh_passenger" depart="184.90" departLane="best" from="46521998#0" to="884400289#3"/>
    <trip id="veh109" type="veh_passenger" depart="188.36" departLane="best" from="1061623142#0" to="458166897#7"/>
    <trip id="veh110" type="veh_passenger" depart="190.08" departLane="best" departSpeed="max" from="5670867#0" to="1201651435#3"/>
    <trip id="veh111" type="veh_passenger" depart="191.81" departLane="best" departSpeed="max" from="458180195#0" to="169267541#0"/>
    <trip id="veh112" type="veh_passenger" depart="193.54" departLane="best" from="458166897#7" to="743358443#3"/>
    <trip id="veh113" type="veh_passenger" depart="195.27" departLane="best" from="458166897#16" to="196117039#0"/>
    <trip id="veh115" type="veh_passenger" depart="198.72" departLane="best" from="5672118#0" to="458166897#7"/>
    <trip id="veh118" type="veh_passenger" depart="203.91" departLane="best" from="727702632#0" to="458166897#7"/>
    <trip id="veh119" type="veh_passenger" depart="205.64" departLane="best" departSpeed="max" from="619280607#0" to="458180185#0"/>
    <trip id="veh120" type="veh_passenger" depart="207.36" departLane="best" from="1201651437#0" to="1376704196#3"/>
    <trip id="veh121" type="veh_passenger" depart="209.09" departLane="best" from="575746067#0" to="710571389#0"/>
    <trip id="veh122" type="veh_passenger" depart="210.82" departLane="best" from="670988060#3" to="1201651437#0"/>
    <trip id="veh123" type="veh_passenger" depart="212.55" departLane="best" from="420356173#0" to="1030123277#0"/>
    <trip id="veh125" type="veh_passenger" depart="216.00" departLane="best" from="1201651437#3" to="884400289#0"/>
    <trip id="veh126" type="veh_passenger" depart="217.73" departLane="best" departSpeed="max" from="-587038175" to="569345535#0"/>
    <trip id="veh127" type="veh_passenger" depart="219.46" departLane="best" from="5673497#0" to="884400289#0"/>
    <trip id="veh128" type="veh_passenger" depart="221.19" departLane="best" departSpeed="max" from="587355676" to="169267541#0"/>
    <trip id="veh129" type="veh_passenger" depart="222.92" departLane="best" from="569345531#0" to="1030123277#0"/>
    <trip id="veh130" type="veh_passenger" depart="224.64" departLane="best" from="619280617#0" to="710571389#0"/>
    <trip id="veh131" type="veh_passenger" depart="226.37" departLane="best" departSpeed="max" from="169381958#0" to="710571387#0"/>
    <trip id="veh133" type="veh_passenger" depart="229.83" departLane="best" from="575746067#0" to="1352944235#0"/>
    <trip id="veh134" type="veh_passenger" depart="231.56" departLane="best" departSpeed="max" from="-587038175" to="1201651437#0"/>
    <trip id="veh137" type="veh_passenger" depart="236.74" departLane="best" departSpeed="max" from="458180195#0" to="441405435#0"/>
    <trip id="veh138" type="veh_passenger" depart="238.47" departLane="best" from="884400294#0" to="458166897#4"/>
    <trip id="veh141" type="veh_passenger" depart="243.65" departLane="best" from="1061623142#0" to="456409017#0"/>
    <trip id="veh142" type="veh_passenger" depart="245.38" departLane="best" departSpeed="max" from="5670867#0" to="22916381#0"/>
    <trip id="veh143" type="veh_passenger" depart="247.11" departLane="best" from="458166897#1" to="458180184#0"/>
    <trip id="veh144" type="veh_passenger" depart="248.84" departLane="best" from="420356173#0" to="569345508#0"/>
    <trip id="veh145" type="veh_passenger" depart="250.57" departLane="best" from="5672118#0" to="46522003#0"/>
    <trip id="veh146" type="veh_passenger" depart="252.29" departLane="best" from="456409017#0" to="1030123275#0"/>
    <trip id="veh147" type="veh_passenger" depart="254.02" departLane="best" from="46521998#0" to="384178816#0"/>
    <trip id="veh148" type="veh_passenger" depart="255.75" departLane="best" departSpeed="max" from="438384693" to="710571389#0"/>
    <trip id="veh149" type="veh_passenger" depart="257.48" departLane="best" departSpeed="max" from="5670867#0" to="22916381#0"/>
    <trip id="veh150" type="veh_passenger" depart="259.21" departLane="best" departSpeed="max" from="438384693" to="441405436#0"/>
    <trip id="veh151" type="veh_passenger" depart="260.93" departLane="best" from="458166897#10" to="22916381#0"/>
    <trip id="veh153" type="veh_passenger" depart="264.39" departLane="best" departSpeed="max" from="819074878" to="1051743127#0"/>
    <trip id="veh154" type="veh_passenger" depart="266.12" departLane="best" from="670988060#3" to="458180188#0"/>
    <trip id="veh155" type="veh_passenger" depart="267.85" departLane="best" from="420906755#0" to="458166897#7"/>
    <trip id="veh157" type="veh_passenger" depart="271.30" departLane="best" from="458166897#16" to="458180185#0"/>
    <trip id="veh158" type="veh_passenger" depart="273.03" departLane="best" departSpeed="max" from="458180195#0" to="458166897#10"/>
    <trip id="veh159" type="veh_passenger" depart="274.76" departLane="best" from="458166897#19" to="1201651437#3"/>
    <trip id="veh160" type="veh_passenger" depart="276.49" departLane="best" from="458166897#4" to="727702633"/>
    <trip id="veh161" type="veh_passenger" depart="278.21" departLane="best" from="575746067#0" to="1201651435#0"/>
    <trip id="veh162" type="veh_passenger" depart="279.94" departLane="best" departSpeed="max" from="458180195#0" to="420356172#0"/>
    <trip id="veh164" type="veh_passenger" depart="283.40" departLane="best" from="46522003#0" to="1352944235#0"/>
    <trip id="veh166" type="veh_passenger" depart="286.85" departLane="best" from="420356172#0" to="458166897#13"/>
    <trip id="veh167" type="veh_passenger" depart="288.58" departLane="best" from="458166897#13" to="458180190#0"/>
    <trip id="veh168" type="veh_passenger" depart="290.31" departLane="best" from="458180186#0" to="5670114#0"/>
    <trip id="veh171" type="veh_passenger" depart="295.49" departLane="best" from="496993762#0" to="456409016#0"/>
    <trip id="veh172" type="veh_passenger" depart="297.22" departLane="best" from="1376704196#3" to="884400289#3"/>
    <trip id="veh174" type="veh_passenger" depart="300.68" departLane="best" from="420356173#0" to="710571389#0"/>
    <trip id="veh175" type="veh_passenger" depart="302.41" departLane="best" from="46522002#0" to="884400294#0"/>
    <trip id="veh176" type="veh_passenger" depart="304.13" departLane="best" from="458180193#6" to="884400289#3"/>
    <trip id="veh177" type="veh_passenger" depart="305.86" departLane="best" from="670988060#0" to="458180187#6"/>
    <trip id="veh178" type="veh_passenger" depart="307.59" departLane="best" departSpeed="max" from="5670867#0" to="458166897#19"/>
    <trip id="veh179" type="veh_passenger" depart="309.32" departLane="best" departSpeed="max" from="619280607#0" to="46522002#0"/>
    <trip id="veh181" type="veh_passenger" depart="312.77" departLane="best" from="458166897#4" to="1376704198#6"/>
    <trip id="veh182" type="veh_passenger" depart="314.50" departLane="best" from="420356172#0" to="458180193#0"/>
    <trip id="veh183" type="veh_passenger" depart="316.23" departLane="best" from="569345515#0" to="458166897#25"/>
    <trip id="veh184" type="veh_passenger" depart="317.96" departLane="best" departSpeed="max" from="458180195#0" to="169267543#0"/>
    <trip id="veh185" type="veh_passenger" depart="319.69" departLane="best" from="1030123277#0" to="226041006#3"/>
    <trip id="veh186" type="veh_passenger" depart="321.41" departLane="best" from="420902878#0" to="36185649"/>
    <trip id="veh187" type="veh_passenger" depart="323.14" departLane="best" from="226041006#0" to="5670114#0"/>
    <trip id="veh188" type="veh_passenger" depart="324.87" departLane="best" departSpeed="max" from="511924053#0" to="1030123275#0"/>
    <trip id="veh189" type="veh_passenger" depart="326.60" departLane="best" from="458166897#13" to="1201651435#3"/>
    <trip id="veh190" type="veh_passenger" depart="328.33" departLane="best" from="458180193#3" to="5670114#0"/>
    <trip id="veh194" type="veh_passenger" depart="335.24" departLane="best" departSpeed="max" from="169381958#0" to="1201651437#3"/>
    <trip id="veh196" type="veh_passenger" depart="338.70" departLane="best" from="458166897#10" to="1201651434#0"/>
    <trip id="veh199" type="veh_passenger" depart="343.88" departLane="best" from="458166897#10" to="458180182#0"/>
    <trip id="veh200" type="veh_passenger" depart="345.61" departLane="best" departSpeed="max" from="-587038175" to="458180193#3"/>
    <trip id="veh201" type="veh_passenger" depart="347.34" departLane="best" from="1201651434#0" to="458166897#10"/>
    <trip id="veh202" type="veh_passenger" depart="349.06" departLane="best" from="456409017#3" to="384178816#0"/>
    <trip id="veh204" type="veh_passenger" depart="352.52" departLane="best" from="420356173#0" to="1030123275#0"/>
    <trip id="veh205" type="veh_passenger" depart="354.25" departLane="best" departSpeed="max" from="-587038175" to="458166897#4"/>
    <trip id="veh209" type="veh_passenger" depart="361.16" departLane="best" departSpeed="max" from="819074878" to="1201651435#3"/>
    <trip id="veh210" type="veh_passenger" depart="362.89" departLane="best" departSpeed="max" from="-587038175" to="1106482768#0"/>
    <trip id="veh211" type="veh_passenger" depart="364.62" departLane="best" from="458180190#0" to="1201651437#3"/>
    <trip id="veh215" type="veh_passenger" depart="371.53" departLane="best" departSpeed="max" from="438384693" to="496993762#0"/>
    <trip id="veh216" type="veh_passenger" depart="373.26" departLane="best" from="884400286#0" to="439768850#0"/>
    <trip id="veh217" type="veh_passenger" depart="374.98" departLane="best" from="511924978#1" to="1030123275#0"/>
    <trip id="veh218" type="veh_passenger" depart="376.71" departLane="best" departSpeed="max" from="511924053#0" to="458180190#0"/>
    <trip id="veh220" type="veh_passenger" depart="380.17" departLane="best" departSpeed="max" from="619280612#0" to="458180187#0"/>
    <trip id="veh221" type="veh_passenger" depart="381.90" departLane="best" from="1106482768#0" to="884400289#3"/>
    <trip id="veh223" type="veh_passenger" depart="385.35" departLane="best" from="458166897#16" to="420906743#0"/>
    <trip id="veh224" type="veh_passenger" depart="387.08" departLane="best" departSpeed="max" from="619280612#0" to="710571388#0"/>
    <trip id="veh225" type="veh_passenger" depart="388.81" departLane="best" from="496993762#0" to="884400289#3"/>
    <trip id="veh226" type="veh_passenger" depart="390.54" departLane="best" departSpeed="max" from="5670867#0" to="884400289#3"/>
    <trip id="veh227" type="veh_passenger" depart="392.26" departLane="best" from="420902878#0" to="670988060#3"/>
    <trip id="veh228" type="veh_passenger" depart="393.99" departLane="best" from="458180187#3" to="458166897#16"/>
    <trip id="veh229" type="veh_passenger" depart="395.72" departLane="best" from="458166897#19" to="569345525#0"/>
    <trip id="veh230" type="veh_passenger" depart="397.45" departLane="best" from="420902878#0" to="710571389#0"/>
    <trip id="veh231" type="veh_passenger" depart="399.18" departLane="best" from="658583340#0" to="1376704197#0"/>
    <trip id="veh234" type="veh_passenger" depart="404.36" departLane="best" departSpeed="max" from="619280612#0" to="1201651435#3"/>
    <trip id="veh236" type="veh_passenger" depart="407.82" departLane="best" departSpeed="max" from="511924053#0" to="196117039#0"/>
    <trip id="veh237" type="veh_passenger" depart="409.54" departLane="best" from="1030123278#0" to="569345515#3"/>
    <trip id="veh239" type="veh_passenger" depart="413.00" departLane="best" departSpeed="max" from="511924053#0" to="458180193#3"/>
    <trip id="veh240" type="veh_passenger" depart="414.73" departLane="best" from="458166897#7" to="670988060#0"/>
    <trip id="veh241" type="veh_passenger" depart="416.46" departLane="best" from="1049841322#0" to="1209567443#0"/>
    <trip id="veh242" type="veh_passenger" depart="418.18" departLane="best" departSpeed="max" from="511924053#0" to="22916381#0"/>
    <trip id="veh243" type="veh_passenger" depart="419.91" departLane="best" from="458180186#4" to="456409016#0"/>
    <trip id="veh245" type="veh_passenger" depart="423.37" departLane="best" departSpeed="max" from="511924053#0" to="169267541#0"/>
    <trip id="veh247" type="veh_passenger" depart="426.83" departLane="best" from="458166897#7" to="569345515#6"/>
    <trip id="veh248" type="veh_passenger" depart="428.55" departLane="best" from="884400294#0" to="458166897#25"/>
    <trip id="veh249" type="veh_passenger" depart="430.28" departLane="best" from="420906743#0" to="1030123275#0"/>
    <trip id="veh250" type="veh_passenger" depart="432.01" departLane="best" from="1376704198#3" to="1352944235#0"/>
    <trip id="veh252" type="veh_passenger" depart="435.47" departLane="best" from="458180187#0" to="169267543#0"/>
    <trip id="veh254" type="veh_passenger" depart="438.92" departLane="best" departSpeed="max" from="511924053#0" to="1376704196#3"/>
    <trip id="veh255" type="veh_passenger" depart="440.65" departLane="best" departSpeed="max" from="619280612#0" to="458166897#16"/>
    <trip id="veh256" type="veh_passenger" depart="442.38" departLane="best" from="619280617#0" to="458180184#0"/>
    <trip id="veh257" type="veh_passenger" depart="444.11" departLane="best" from="458166897#4" to="456409017#3"/>
    <trip id="veh259" type="veh_passenger" depart="447.56" departLane="best" departSpeed="max" from="819074878" to="458166897#13"/>
    <trip id="veh260" type="veh_passenger" depart="449.29" departLane="best" departSpeed="max" from="619280607#0" to="441405435#0"/>
    <trip id="veh261" type="veh_passenger" depart="451.02" departLane="best" from="1030123277#0" to="458180190#0"/>
    <trip id="veh262" type="veh_passenger" depart="452.75" departLane="best" from="1030119892#0" to="1106482767#0"/>
    <trip id="veh263" type="veh_passenger" depart="454.47" departLane="best" from="458180190#0" to="22916381#0"/>
    <trip id="veh265" type="veh_passenger" depart="457.93" departLane="best" from="569345515#0" to="458180187#3"/>
    <trip id="veh266" type="veh_passenger" depart="459.66" departLane="best" from="458180185#0" to="458166897#1"/>
    <trip id="veh267" type="veh_passenger" depart="461.39" departLane="best" departSpeed="max" from="988977545#0" to="22916381#0"/>
    <trip id="veh268" type="veh_passenger" depart="463.11" departLane="best" departSpeed="max" from="458180195#0" to="458180187#6"/>
    <trip id="veh269" type="veh_passenger" depart="464.84" departLane="best" from="5671629#0" to="884400289#3"/>
    <trip id="veh270" type="veh_passenger" depart="466.57" departLane="best" from="169267541#0" to="1201651435#3"/>
    <trip id="veh271" type="veh_passenger" depart="468.30" departLane="best" from="46521994#0" to="1135661892#0"/>
    <trip id="veh272" type="veh_passenger" depart="470.03" departLane="best" from="1376704196#3" to="1030123275#0"/>
    <trip id="veh274" type="veh_passenger" depart="473.48" departLane="best" from="458180193#6" to="226041006#3"/>
    <trip id="veh275" type="veh_passenger" depart="475.21" departLane="best" departSpeed="max" from="511924053#0" to="458166897#1"/>
    <trip id="veh276" type="veh_passenger" depart="476.94" departLane="best" from="569345531#0" to="458180189#0"/>
    <trip id="veh277" type="veh_passenger" depart="478.67" departLane="best" from="46521994#0" to="884400289#3"/>
    <trip id="veh278" type="veh_passenger" depart="480.39" departLane="best" departSpeed="max" from="458180195#0" to="743358445#2"/>
    <trip id="veh279" type="veh_passenger" depart="482.12" departLane="best" from="1352944235#0" to="22916381#0"/>
    <trip id="veh280" type="veh_passenger" depart="483.85" departLane="best" from="420906753#0" to="1376704196#3"/>
    <trip id="veh281" type="veh_passenger" depart="485.58" departLane="best" departSpeed="max" from="511924053#0" to="5672118#0"/>
    <trip id="veh282" type="veh_passenger" depart="487.31" departLane="best" departSpeed="max" from="819074878" to="458166897#19"/>
    <trip id="veh283" type="veh_passenger" depart="489.03" departLane="best" from="458177131#0" to="1030123275#0"/>
    <trip id="veh284" type="veh_passenger" depart="490.76" departLane="best" departSpeed="max" from="-587038175" to="456409017#0"/>
    <trip id="veh285" type="veh_passenger" depart="492.49" departLane="best" from="1049841322#0" to="884400289#3"/>
    <trip id="veh286" type="veh_passenger" depart="494.22" departLane="best" departSpeed="max" from="619280607#0" to="458180184#0"/>
    <trip id="veh287" type="veh_passenger" depart="495.95" departLane="best" departSpeed="max" from="819074878" to="988977545#5"/>
    <trip id="veh288" type="veh_passenger" depart="497.67" departLane="best" from="743358443#3" to="1201651435#3"/>
    <trip id="veh290" type="veh_passenger" depart="501.13" departLane="best" from="458166897#10" to="710571389#0"/>
    <trip id="veh291" type="veh_passenger" depart="502.86" departLane="best" from="420906753#0" to="884400289#3"/>
    <trip id="veh292" type="veh_passenger" depart="504.59" departLane="best" departSpeed="max" from="587355676" to="458166897#7"/>
    <trip id="veh293" type="veh_passenger" depart="506.31" departLane="best" from="420806146#0" to="22916381#0"/>
    <trip id="veh294" type="veh_passenger" depart="508.04" departLane="best" from="439768850#0" to="884400289#3"/>