<?xml version="1.0" encoding="UTF-8"?>

<!-- generated on 2025-04-15 12:47:00 by Eclipse SUMO netconvert Version 1.22.0
<netconvertConfiguration xmlns:xsi="http://www.w3.org/2001/XMLSchema-instance" xsi:noNamespaceSchemaLocation="http://sumo.dlr.de/xsd/netconvertConfiguration.xsd">

    <input>
        <type-files value="${SUMO_HOME}/data/typemap/osmNetconvert.typ.xml"/>
        <osm-files value="osm_bbox.osm.xml.gz"/>
    </input>

    <output>
        <output-file value="osm.net.xml.gz"/>
        <output.street-names value="true"/>
        <output.original-names value="true"/>
    </output>

    <projection>
        <proj.utm value="true"/>
    </projection>

    <processing>
        <geometry.remove value="true"/>
        <roundabouts.guess value="true"/>
    </processing>

    <tls_building>
        <tls.discard-simple value="true"/>
        <tls.join value="true"/>
        <tls.guess-signals value="true"/>
        <tls.default-type value="actuated"/>
    </tls_building>

    <ramp_guessing>
        <ramps.guess value="true"/>
    </ramp_guessing>

    <edge_removal>
        <keep-edges.by-vclass value="passenger"/>
    </edge_removal>

    <junctions>
        <junctions.join value="true"/>
        <junctions.corner-detail value="5"/>
    </junctions>

</netconvertConfiguration>
-->

<net version="1.20" junctionCornerDetail="5" limitTurnSpeed="5.50" xmlns:xsi="http://www.w3.org/2001/XMLSchema-instance" xsi:noNamespaceSchemaLocation="http://sumo.dlr.de/xsd/net_file.xsd">

    <location netOffset="-586246.63,-4511877.81" convBoundary="0.00,0.00,1119.70,682.36" origBoundary="-73.978289,40.753264,-73.964935,40.759411" projParameter="+proj=utm +zone=18 +ellps=WGS84 +datum=WGS84 +units=m +no_defs"/>

    <type id="highway.primary" priority="12" numLanes="2" speed="27.78" disallow="tram rail_urban rail rail_electric rail_fast ship container cable_car subway aircraft wheelchair scooter drone" oneway="0"/>
    <type id="highway.residential" priority="3" numLanes="1" speed="13.89" disallow="tram rail_urban rail rail_electric rail_fast ship container cable_car subway aircraft wheelchair scooter drone" oneway="0"/>
    <type id="highway.secondary" priority="11" numLanes="1" speed="27.78" disallow="tram rail_urban rail rail_electric rail_fast ship container cable_car subway aircraft wheelchair scooter drone" oneway="0"/>

    <edge id=":10121802252_0" function="internal">
        <lane id=":10121802252_0_0" index="0" disallow="tram rail_urban rail rail_electric rail_fast ship container cable_car subway aircraft wheelchair scooter drone" speed="3.65" length="4.67" shape="1078.06,684.38 1076.63,684.25 1075.89,683.74 1075.86,682.85 1076.53,681.57"/>
    </edge>
    <edge id=":10125247898_0" function="internal">
        <lane id=":10125247898_0_0" index="0" disallow="tram rail_urban rail rail_electric rail_fast ship container cable_car subway aircraft wheelchair scooter drone" speed="3.65" length="4.67" shape="68.44,38.32 68.57,36.88 69.09,36.15 69.98,36.12 71.26,36.79"/>
    </edge>
    <edge id=":11140867101_0" function="internal">
        <lane id=":11140867101_0_0" index="0" disallow="tram rail_urban rail rail_electric rail_fast ship container cable_car subway aircraft wheelchair scooter drone" speed="27.78" length="8.21" shape="515.85,619.31 513.86,620.67 512.71,621.91 511.56,623.16 509.57,624.52"/>
        <lane id=":11140867101_0_1" index="1" disallow="tram rail_urban rail rail_electric rail_fast ship container cable_car subway aircraft wheelchair scooter drone" speed="27.78" length="8.21" shape="514.33,616.49 512.34,617.85 511.19,619.10 510.04,620.34 508.05,621.70"/>
        <lane id=":11140867101_0_2" index="2" disallow="tram rail_urban rail rail_electric rail_fast ship container cable_car subway aircraft wheelchair scooter drone" speed="27.78" length="8.21" shape="514.33,616.49 512.10,617.41 510.43,617.69 508.76,617.97 506.53,618.88"/>
    </edge>
    <edge id=":3786902260_0" function="internal">
        <lane id=":3786902260_0_0" index="0" disallow="tram rail_urban rail rail_electric rail_fast ship container cable_car subway aircraft wheelchair scooter drone" speed="11.18" length="8.19" shape="204.66,33.09 206.00,35.09 207.23,36.26 208.44,37.44 209.74,39.47"/>
        <lane id=":3786902260_0_1" index="1" disallow="tram rail_urban rail rail_electric rail_fast ship container cable_car subway aircraft wheelchair scooter drone" speed="11.18" length="8.19" shape="204.66,33.09 205.55,35.31 205.80,36.98 206.03,38.65 206.88,40.90"/>
    </edge>
    <edge id=":4202958491_0" function="internal">
        <lane id=":4202958491_0_0" index="0" disallow="tram rail_urban rail rail_electric rail_fast ship container cable_car subway aircraft wheelchair scooter drone" speed="11.18" length="9.11" shape="18.73,121.87 20.62,123.78 22.76,124.27 24.89,124.76 26.76,126.68"/>
        <lane id=":4202958491_0_1" index="1" disallow="tram rail_urban rail rail_electric rail_fast ship container cable_car subway aircraft wheelchair scooter drone" speed="11.18" length="9.11" shape="15.92,123.40 17.80,125.30 19.94,125.78 22.07,126.27 23.94,128.18"/>
        <lane id=":4202958491_0_2" index="2" disallow="tram rail_urban rail rail_electric rail_fast ship container cable_car subway aircraft wheelchair scooter drone" speed="11.18" length="9.11" shape="15.92,123.40 17.28,125.39 18.53,126.53 19.77,127.68 21.11,129.68"/>
        <lane id=":4202958491_0_3" index="3" disallow="tram rail_urban rail rail_electric rail_fast ship container cable_car subway aircraft wheelchair scooter drone" speed="11.18" length="9.11" shape="15.92,123.40 16.84,125.62 17.11,127.28 17.38,128.95 18.28,131.18"/>
        <lane id=":4202958491_0_4" index="4" disallow="tram rail_urban rail rail_electric rail_fast ship container cable_car subway aircraft wheelchair scooter drone" speed="11.18" length="9.11" shape="15.92,123.40 16.48,126.00 15.70,128.03 14.92,130.08 15.46,132.68"/>
    </edge>
    <edge id=":4207124945_0" function="internal">
        <lane id=":4207124945_0_0" index="0" disallow="tram rail_urban rail rail_electric rail_fast ship container cable_car subway aircraft wheelchair scooter drone" speed="19.48" length="0.30" shape="778.45,477.97 778.18,478.11"/>
        <lane id=":4207124945_0_1" index="1" disallow="tram rail_urban rail rail_electric rail_fast ship container cable_car subway aircraft wheelchair scooter drone" speed="19.48" length="0.30" shape="776.94,475.14 776.68,475.28"/>
    </edge>
    <edge id=":4207915682_0" function="internal">
        <lane id=":4207915682_0_0" index="0" disallow="tram rail_urban rail rail_electric rail_fast ship container cable_car subway aircraft wheelchair scooter drone" speed="27.78" length="8.53" shape="164.72,176.10 166.62,174.45 167.42,172.73 168.23,171.02 170.14,169.39"/>
        <lane id=":4207915682_0_1" index="1" disallow="tram rail_urban rail rail_electric rail_fast ship container cable_car subway aircraft wheelchair scooter drone" speed="27.78" length="8.53" shape="164.72,176.10 171.69,172.19"/>
        <lane id=":4207915682_0_2" index="2" disallow="tram rail_urban rail rail_electric rail_fast ship container cable_car subway aircraft wheelchair scooter drone" speed="27.78" length="8.53" shape="164.72,176.10 167.10,175.32 168.97,175.53 170.85,175.75 173.24,174.99"/>
    </edge>
    <edge id=":4207952790_0" function="internal">
        <lane id=":4207952790_0_0" index="0" disallow="tram rail_urban rail rail_electric rail_fast ship container cable_car subway aircraft wheelchair scooter drone" speed="11.18" length="8.21" shape="95.95,259.72 97.27,261.71 98.49,262.87 99.72,264.02 101.05,266.00"/>
        <lane id=":4207952790_0_1" index="1" disallow="tram rail_urban rail rail_electric rail_fast ship container cable_car subway aircraft wheelchair scooter drone" speed="11.18" length="8.21" shape="93.11,261.19 94.43,263.19 95.65,264.35 96.89,265.51 98.23,267.50"/>
        <lane id=":4207952790_0_2" index="2" disallow="tram rail_urban rail rail_electric rail_fast ship container cable_car subway aircraft wheelchair scooter drone" speed="11.18" length="8.21" shape="90.27,262.66 91.59,264.67 92.82,265.84 94.05,267.00 95.40,269.00"/>
        <lane id=":4207952790_0_3" index="3" disallow="tram rail_urban rail rail_electric rail_fast ship container cable_car subway aircraft wheelchair scooter drone" speed="11.18" length="8.21" shape="87.43,264.13 88.75,266.15 89.99,267.32 91.22,268.49 92.57,270.50"/>
        <lane id=":4207952790_0_4" index="4" disallow="tram rail_urban rail rail_electric rail_fast ship container cable_car subway aircraft wheelchair scooter drone" speed="11.18" length="8.21" shape="87.43,264.13 88.31,266.38 88.57,268.07 88.84,269.75 89.75,272.00"/>
    </edge>
    <edge id=":42432580_0" function="internal">
        <lane id=":42432580_0_0" index="0" disallow="tram rail_urban rail rail_electric rail_fast ship container cable_car subway aircraft wheelchair scooter drone" speed="7.29" length="11.67" shape="47.93,518.17 45.83,514.95 43.62,513.04 41.30,512.43 38.89,513.12"/>
    </edge>
    <edge id=":42432580_1" function="internal">
        <lane id=":42432580_1_0" index="0" disallow="tram rail_urban rail rail_electric rail_fast ship container cable_car subway aircraft wheelchair scooter drone" speed="27.78" length="17.61" shape="47.93,518.17 39.67,502.61"/>
        <lane id=":42432580_1_1" index="1" disallow="tram rail_urban rail rail_electric rail_fast ship container cable_car subway aircraft wheelchair scooter drone" speed="27.78" length="17.61" shape="50.76,516.66 42.50,501.11"/>
        <lane id=":42432580_1_2" index="2" disallow="tram rail_urban rail rail_electric rail_fast ship container cable_car subway aircraft wheelchair scooter drone" speed="27.78" length="17.61" shape="53.58,515.16 45.32,499.61"/>
        <lane id=":42432580_1_3" index="3" disallow="tram rail_urban rail rail_electric rail_fast ship container cable_car subway aircraft wheelchair scooter drone" speed="27.78" length="17.61" shape="56.41,513.65 48.15,498.11"/>
    </edge>
    <edge id=":42432580_5" function="internal">
        <lane id=":42432580_5_0" index="0" disallow="tram rail_urban rail rail_electric rail_fast ship container cable_car subway aircraft wheelchair scooter drone" speed="27.78" length="21.10" shape="58.73,506.07 52.33,508.93 46.97,510.56 42.54,511.71 38.89,513.12"/>
    </edge>
    <edge id=":42432580_6" function="internal">
        <lane id=":42432580_6_0" index="0" disallow="tram rail_urban rail rail_electric rail_fast ship container cable_car subway aircraft wheelchair scooter drone" speed="8.00" length="14.20" shape="57.22,503.25 53.56,504.58 50.36,504.41 47.61,502.76 45.32,499.61"/>
        <lane id=":42432580_6_1" index="1" disallow="tram rail_urban rail rail_electric rail_fast ship container cable_car subway aircraft wheelchair scooter drone" speed="6.50" length="9.03" shape="55.72,500.42 53.39,501.27 51.35,501.16 49.61,500.11 48.15,498.11"/>
    </edge>
    <edge id=":42434077_0" function="internal">
        <lane id=":42434077_0_0" index="0" disallow="tram rail_urban rail rail_electric rail_fast ship container cable_car subway aircraft wheelchair scooter drone" speed="19.48" length="8.21" shape="146.00,188.30 148.00,186.96 149.15,185.71 150.30,184.47 152.28,183.09"/>
    </edge>
    <edge id=":42434085_0" function="internal">
        <lane id=":42434085_0_0" index="0" disallow="tram rail_urban rail rail_electric rail_fast ship container cable_car subway aircraft wheelchair scooter drone" speed="27.78" length="14.29" shape="346.79,84.66 340.06,71.99"/>
        <lane id=":42434085_0_1" index="1" disallow="tram rail_urban rail rail_electric rail_fast ship container cable_car subway aircraft wheelchair scooter drone" speed="27.78" length="14.29" shape="349.61,83.14 342.91,70.52"/>
        <lane id=":42434085_0_2" index="2" disallow="tram rail_urban rail rail_electric rail_fast ship container cable_car subway aircraft wheelchair scooter drone" speed="27.78" length="14.29" shape="352.42,81.61 345.75,69.06"/>
    </edge>
    <edge id=":42434085_3" function="internal">
        <lane id=":42434085_3_0" index="0" disallow="tram rail_urban rail rail_electric rail_fast ship container cable_car subway aircraft wheelchair scooter drone" speed="6.46" length="8.90" shape="352.42,81.61 351.57,79.33 351.66,77.32 352.69,75.59 354.65,74.14"/>
    </edge>
    <edge id=":42434085_4" function="internal">
        <lane id=":42434085_4_0" index="0" disallow="tram rail_urban rail rail_electric rail_fast ship container cable_car subway aircraft wheelchair scooter drone" speed="6.58" length="9.16" shape="337.83,79.72 339.82,78.21 340.86,76.41 340.94,74.34 340.06,71.99"/>
    </edge>
    <edge id=":42434085_5" function="internal">
        <lane id=":42434085_5_0" index="0" disallow="tram rail_urban rail rail_electric rail_fast ship container cable_car subway aircraft wheelchair scooter drone" speed="27.78" length="17.44" shape="337.83,79.72 353.13,71.32"/>
        <lane id=":42434085_5_1" index="1" disallow="tram rail_urban rail rail_electric rail_fast ship container cable_car subway aircraft wheelchair scooter drone" speed="27.78" length="17.44" shape="339.39,82.52 354.65,74.14"/>
    </edge>
    <edge id=":42436705_0" function="internal">
        <lane id=":42436705_0_0" index="0" disallow="tram rail_urban rail rail_electric rail_fast ship container cable_car subway aircraft wheelchair scooter drone" speed="6.53" length="9.06" shape="609.92,575.34 608.44,573.36 606.67,572.32 604.62,572.23 602.30,573.09"/>
    </edge>
    <edge id=":42436705_1" function="internal">
        <lane id=":42436705_1_0" index="0" disallow="tram rail_urban rail rail_electric rail_fast ship container cable_car subway aircraft wheelchair scooter drone" speed="27.78" length="14.40" shape="609.92,575.34 603.00,562.72"/>
        <lane id=":42436705_1_1" index="1" disallow="tram rail_urban rail rail_electric rail_fast ship container cable_car subway aircraft wheelchair scooter drone" speed="27.78" length="14.40" shape="612.73,573.81 605.81,561.18"/>
        <lane id=":42436705_1_2" index="2" disallow="tram rail_urban rail rail_electric rail_fast ship container cable_car subway aircraft wheelchair scooter drone" speed="27.78" length="14.40" shape="615.54,572.27 608.61,559.64"/>
        <lane id=":42436705_1_3" index="3" disallow="tram rail_urban rail rail_electric rail_fast ship container cable_car subway aircraft wheelchair scooter drone" speed="27.78" length="14.40" shape="618.34,570.73 611.42,558.10"/>
    </edge>
    <edge id=":42436705_5" function="internal">
        <lane id=":42436705_5_0" index="0" disallow="tram rail_urban rail rail_electric rail_fast ship container cable_car subway aircraft wheelchair scooter drone" speed="19.48" length="20.78" shape="620.56,563.16 602.30,573.09"/>
        <lane id=":42436705_5_1" index="1" disallow="tram rail_urban rail rail_electric rail_fast ship container cable_car subway aircraft wheelchair scooter drone" speed="19.48" length="20.78" shape="619.02,560.35 600.78,570.28"/>
    </edge>
    <edge id=":42436705_7" function="internal">
        <lane id=":42436705_7_0" index="0" disallow="tram rail_urban rail rail_electric rail_fast ship container cable_car subway aircraft wheelchair scooter drone" speed="7.33" length="11.73" shape="619.02,560.35 615.48,561.89 612.57,562.28 610.28,561.53 608.61,559.64"/>
        <lane id=":42436705_7_1" index="1" disallow="tram rail_urban rail rail_electric rail_fast ship container cable_car subway aircraft wheelchair scooter drone" speed="6.52" length="9.04" shape="619.02,560.35 616.71,561.21 614.67,561.13 612.91,560.09 611.42,558.10"/>
    </edge>
    <edge id=":42436707_0" function="internal">
        <lane id=":42436707_0_0" index="0" disallow="tram rail_urban rail rail_electric rail_fast ship container cable_car subway aircraft wheelchair scooter drone" speed="6.61" length="9.26" shape="758.57,488.52 756.59,489.99 755.55,491.78 755.47,493.90 756.33,496.35"/>
        <lane id=":42436707_0_1" index="1" disallow="tram rail_urban rail rail_electric rail_fast ship container cable_car subway aircraft wheelchair scooter drone" speed="7.41" length="11.90" shape="758.57,488.52 755.35,490.64 753.43,492.90 752.80,495.29 753.48,497.81"/>
        <lane id=":42436707_0_2" index="2" disallow="tram rail_urban rail rail_electric rail_fast ship container cable_car subway aircraft wheelchair scooter drone" speed="8.18" length="14.71" shape="758.57,488.52 754.11,491.29 751.30,494.01 750.14,496.67 750.63,499.27"/>
        <lane id=":42436707_0_3" index="3" disallow="tram rail_urban rail rail_electric rail_fast ship container cable_car subway aircraft wheelchair scooter drone" speed="8.90" length="17.60" shape="758.57,488.52 752.87,491.95 749.18,495.13 747.48,498.05 747.79,500.73"/>
    </edge>
    <edge id=":42436707_4" function="internal">
        <lane id=":42436707_4_0" index="0" disallow="tram rail_urban rail rail_electric rail_fast ship container cable_car subway aircraft wheelchair scooter drone" speed="11.18" length="27.12" shape="758.57,488.52 734.66,501.33"/>
        <lane id=":42436707_4_1" index="1" disallow="tram rail_urban rail rail_electric rail_fast ship container cable_car subway aircraft wheelchair scooter drone" speed="11.18" length="27.12" shape="757.06,485.70 733.15,498.50"/>
    </edge>
    <edge id=":42436707_6" function="internal">
        <lane id=":42436707_6_0" index="0" disallow="tram rail_urban rail rail_electric rail_fast ship container cable_car subway aircraft wheelchair scooter drone" speed="11.18" length="14.84" shape="749.58,483.43 756.33,496.35"/>
        <lane id=":42436707_6_1" index="1" disallow="tram rail_urban rail rail_electric rail_fast ship container cable_car subway aircraft wheelchair scooter drone" speed="11.18" length="14.84" shape="746.76,484.93 753.48,497.81"/>
        <lane id=":42436707_6_2" index="2" disallow="tram rail_urban rail rail_electric rail_fast ship container cable_car subway aircraft wheelchair scooter drone" speed="11.18" length="14.84" shape="743.93,486.43 750.63,499.27"/>
        <lane id=":42436707_6_3" index="3" disallow="tram rail_urban rail rail_electric rail_fast ship container cable_car subway aircraft wheelchair scooter drone" speed="11.18" length="14.84" shape="741.11,487.94 747.79,500.73"/>
        <lane id=":42436707_6_4" index="4" disallow="tram rail_urban rail rail_electric rail_fast ship container cable_car subway aircraft wheelchair scooter drone" speed="11.18" length="14.84" shape="741.11,487.94 742.72,491.98 743.08,495.03 743.42,498.10 744.94,502.19"/>
        <lane id=":42436707_6_5" index="5" disallow="tram rail_urban rail rail_electric rail_fast ship container cable_car subway aircraft wheelchair scooter drone" speed="11.18" length="14.84" shape="741.11,487.94 742.34,492.32 741.66,495.76 740.95,499.21 742.09,503.65"/>
    </edge>
    <edge id=":42436707_12" function="internal">
        <lane id=":42436707_12_0" index="0" disallow="tram rail_urban rail rail_electric rail_fast ship container cable_car subway aircraft wheelchair scooter drone" speed="7.98" length="14.19" shape="738.28,489.44 739.63,493.07 739.47,496.26 737.82,499.02 734.66,501.33"/>
        <lane id=":42436707_12_1" index="1" disallow="tram rail_urban rail rail_electric rail_fast ship container cable_car subway aircraft wheelchair scooter drone" speed="6.49" length="9.03" shape="735.46,490.94 736.31,493.25 736.21,495.28 735.16,497.03 733.15,498.50"/>
    </edge>
    <edge id=":42436710_0" function="internal">
        <lane id=":42436710_0_0" index="0" disallow="tram rail_urban rail rail_electric rail_fast ship container cable_car subway aircraft wheelchair scooter drone" speed="7.34" length="10.92" shape="933.05,402.92 931.23,400.53 929.09,399.28 926.62,399.16 923.83,400.17"/>
    </edge>
    <edge id=":42436710_1" function="internal">
        <lane id=":42436710_1_0" index="0" disallow="tram rail_urban rail rail_electric rail_fast ship container cable_car subway aircraft wheelchair scooter drone" speed="11.18" length="17.72" width="5.25" shape="933.05,402.92 924.43,387.33"/>
        <lane id=":42436710_1_1" index="1" disallow="tram rail_urban rail rail_electric rail_fast ship container cable_car subway aircraft wheelchair scooter drone" speed="11.18" length="17.72" width="5.25" shape="937.63,400.35 929.04,384.82"/>
        <lane id=":42436710_1_2" index="2" disallow="tram rail_urban rail rail_electric rail_fast ship container cable_car subway aircraft wheelchair scooter drone" speed="11.18" length="17.72" width="5.25" shape="942.21,397.79 933.65,382.31"/>
        <lane id=":42436710_1_3" index="3" disallow="tram rail_urban rail rail_electric rail_fast ship container cable_car subway aircraft wheelchair scooter drone" speed="11.18" length="17.72" width="5.25" shape="946.79,395.22 938.26,379.79"/>
    </edge>
    <edge id=":42436710_5" function="internal">
        <lane id=":42436710_5_0" index="0" disallow="tram rail_urban rail rail_electric rail_fast ship container cable_car subway aircraft wheelchair scooter drone" speed="19.48" length="29.23" shape="949.90,387.15 923.83,400.17"/>
        <lane id=":42436710_5_1" index="1" disallow="tram rail_urban rail rail_electric rail_fast ship container cable_car subway aircraft wheelchair scooter drone" speed="19.48" length="29.23" shape="948.39,384.33 922.14,397.45"/>
    </edge>
    <edge id=":42436710_7" function="internal">
        <lane id=":42436710_7_0" index="0" disallow="tram rail_urban rail rail_electric rail_fast ship container cable_car subway aircraft wheelchair scooter drone" speed="8.12" length="14.55" width="5.25" shape="946.87,381.51 942.08,383.68 938.28,384.54 935.47,384.08 933.65,382.31"/>
        <lane id=":42436710_7_1" index="1" disallow="tram rail_urban rail rail_electric rail_fast ship container cable_car subway aircraft wheelchair scooter drone" speed="6.82" length="9.98" width="5.25" shape="946.87,381.51 944.11,382.60 941.75,382.67 939.80,381.74 938.26,379.79"/>
    </edge>
    <edge id=":42438881_0" function="internal">
        <lane id=":42438881_0_0" index="0" disallow="tram rail_urban rail rail_electric rail_fast ship container cable_car subway aircraft wheelchair scooter drone" speed="6.49" length="9.04" shape="195.07,431.40 193.08,432.87 192.04,434.62 191.96,436.66 192.83,438.99"/>
        <lane id=":42438881_0_1" index="1" disallow="tram rail_urban rail rail_electric rail_fast ship container cable_car subway aircraft wheelchair scooter drone" speed="7.31" length="11.75" shape="195.07,431.40 191.84,433.53 189.93,435.76 189.32,438.09 190.02,440.52"/>
    </edge>
    <edge id=":42438881_2" function="internal">
        <lane id=":42438881_2_0" index="0" disallow="tram rail_urban rail rail_electric rail_fast ship container cable_car subway aircraft wheelchair scooter drone" speed="27.78" length="20.84" shape="195.07,431.40 176.70,441.26"/>
        <lane id=":42438881_2_1" index="1" disallow="tram rail_urban rail rail_electric rail_fast ship container cable_car subway aircraft wheelchair scooter drone" speed="27.78" length="20.84" shape="193.55,428.59 175.20,438.44"/>
    </edge>
    <edge id=":42438881_4" function="internal">
        <lane id=":42438881_4_0" index="0" disallow="tram rail_urban rail rail_electric rail_fast ship container cable_car subway aircraft wheelchair scooter drone" speed="11.18" length="14.48" shape="185.91,426.29 192.83,438.99"/>
        <lane id=":42438881_4_1" index="1" disallow="tram rail_urban rail rail_electric rail_fast ship container cable_car subway aircraft wheelchair scooter drone" speed="11.18" length="14.48" shape="183.10,427.82 190.02,440.52"/>
        <lane id=":42438881_4_2" index="2" disallow="tram rail_urban rail rail_electric rail_fast ship container cable_car subway aircraft wheelchair scooter drone" speed="11.18" length="14.48" shape="180.29,429.34 187.22,442.06"/>
        <lane id=":42438881_4_3" index="3" disallow="tram rail_urban rail rail_electric rail_fast ship container cable_car subway aircraft wheelchair scooter drone" speed="11.18" length="14.48" shape="177.47,430.87 184.41,443.60"/>
    </edge>
    <edge id=":42438881_8" function="internal">
        <lane id=":42438881_8_0" index="0" disallow="tram rail_urban rail rail_electric rail_fast ship container cable_car subway aircraft wheelchair scooter drone" speed="6.49" length="9.03" shape="177.47,430.87 178.34,433.19 178.24,435.23 177.20,436.98 175.20,438.44"/>
    </edge>
    <edge id=":42438889_0" function="internal">
        <lane id=":42438889_0_0" index="0" disallow="tram rail_urban rail rail_electric rail_fast ship container cable_car subway aircraft wheelchair scooter drone" speed="6.51" length="9.03" shape="458.64,295.13 457.17,293.14 455.41,292.10 453.37,292.01 451.05,292.87"/>
    </edge>
    <edge id=":42438889_1" function="internal">
        <lane id=":42438889_1_0" index="0" disallow="tram rail_urban rail rail_electric rail_fast ship container cable_car subway aircraft wheelchair scooter drone" speed="27.78" length="14.44" shape="461.46,293.61 459.21,289.96 457.37,287.65 455.53,285.34 453.30,281.68"/>
        <lane id=":42438889_1_1" index="1" disallow="tram rail_urban rail rail_electric rail_fast ship container cable_car subway aircraft wheelchair scooter drone" speed="27.78" length="14.44" shape="464.27,292.09 462.03,288.45 460.19,286.15 458.36,283.84 456.13,280.19"/>
        <lane id=":42438889_1_2" index="2" disallow="tram rail_urban rail rail_electric rail_fast ship container cable_car subway aircraft wheelchair scooter drone" speed="27.78" length="14.44" shape="467.09,290.57 464.85,286.94 463.02,284.65 461.19,282.35 458.97,278.71"/>
    </edge>
    <edge id=":42438889_4" function="internal">
        <lane id=":42438889_4_0" index="0" disallow="tram rail_urban rail rail_electric rail_fast ship container cable_car subway aircraft wheelchair scooter drone" speed="27.78" length="20.87" shape="468.61,281.59 451.05,292.87"/>
        <lane id=":42438889_4_1" index="1" disallow="tram rail_urban rail rail_electric rail_fast ship container cable_car subway aircraft wheelchair scooter drone" speed="27.78" length="20.87" shape="468.61,281.59 449.53,290.06"/>
    </edge>
    <edge id=":42438889_6" function="internal">
        <lane id=":42438889_6_0" index="0" disallow="tram rail_urban rail rail_electric rail_fast ship container cable_car subway aircraft wheelchair scooter drone" speed="7.99" length="14.18" shape="468.61,281.59 464.41,283.34 460.93,283.69 458.17,282.64 456.13,280.19"/>
        <lane id=":42438889_6_1" index="1" disallow="tram rail_urban rail rail_electric rail_fast ship container cable_car subway aircraft wheelchair scooter drone" speed="7.25" length="11.48" shape="468.61,281.59 465.65,282.68 463.05,282.56 460.83,281.24 458.97,278.71"/>
    </edge>
    <edge id=":42438891_0" function="internal">
        <lane id=":42438891_0_0" index="0" disallow="tram rail_urban rail rail_electric rail_fast ship container cable_car subway aircraft wheelchair scooter drone" speed="6.51" length="9.02" shape="608.55,210.00 606.57,211.47 605.53,213.22 605.44,215.26 606.30,217.59"/>
        <lane id=":42438891_0_1" index="1" disallow="tram rail_urban rail rail_electric rail_fast ship container cable_car subway aircraft wheelchair scooter drone" speed="7.34" length="11.73" shape="608.55,210.00 605.34,212.13 603.43,214.37 602.81,216.70 603.49,219.13"/>
        <lane id=":42438891_0_2" index="2" disallow="tram rail_urban rail rail_electric rail_fast ship container cable_car subway aircraft wheelchair scooter drone" speed="8.11" length="14.58" shape="608.55,210.00 604.11,212.80 601.32,215.51 600.18,218.14 600.68,220.67"/>
        <lane id=":42438891_0_3" index="3" disallow="tram rail_urban rail rail_electric rail_fast ship container cable_car subway aircraft wheelchair scooter drone" speed="9.34" length="19.65" shape="607.02,207.18 601.45,210.83 598.07,214.55 596.88,218.34 597.88,222.20"/>
    </edge>
    <edge id=":42438891_4" function="internal">
        <lane id=":42438891_4_0" index="0" disallow="tram rail_urban rail rail_electric rail_fast ship container cable_car subway aircraft wheelchair scooter drone" speed="27.78" length="27.44" shape="605.50,204.37 597.53,209.25 591.41,213.79 586.72,217.56 583.05,220.09"/>
    </edge>
    <edge id=":42438891_5" function="internal">
        <lane id=":42438891_5_0" index="0" disallow="tram rail_urban rail rail_electric rail_fast ship container cable_car subway aircraft wheelchair scooter drone" speed="11.18" length="17.74" shape="597.90,202.11 606.30,217.59"/>
        <lane id=":42438891_5_1" index="1" disallow="tram rail_urban rail rail_electric rail_fast ship container cable_car subway aircraft wheelchair scooter drone" speed="11.18" length="17.74" shape="595.08,203.62 603.49,219.13"/>
        <lane id=":42438891_5_2" index="2" disallow="tram rail_urban rail rail_electric rail_fast ship container cable_car subway aircraft wheelchair scooter drone" speed="11.18" length="17.74" shape="592.26,205.14 600.68,220.67"/>
        <lane id=":42438891_5_3" index="3" disallow="tram rail_urban rail rail_electric rail_fast ship container cable_car subway aircraft wheelchair scooter drone" speed="11.18" length="17.74" shape="589.45,206.66 597.88,222.20"/>
        <lane id=":42438891_5_4" index="4" disallow="tram rail_urban rail rail_electric rail_fast ship container cable_car subway aircraft wheelchair scooter drone" speed="11.18" length="17.74" shape="586.63,208.17 595.07,223.74"/>
        <lane id=":42438891_5_5" index="5" disallow="tram rail_urban rail rail_electric rail_fast ship container cable_car subway aircraft wheelchair scooter drone" speed="11.18" length="17.74" shape="586.63,208.17 588.72,213.07 589.46,216.72 590.19,220.37 592.26,225.28"/>
    </edge>
    <edge id=":42438891_11" function="internal">